2024_89_CemigReconfigurationCases/1_AlimsCemig/MIB15/MIB15SegmentosMT.dss
new line.TR1046317 bus1=BMT123275884.1,bus2=BMT4906033B.1,Phases=1,Linecode=CAB202_3_1,Length=0.102076000,Units=km
new line.TR1046324 bus1=BMT123275891.1,bus2=BMT123275898.1,Phases=1,Linecode=CAB103_3_1,Length=0.039306000,Units=km
new line.TR1046331 bus1=BMT123275891.1,bus2=BMT4904738B.1,Phases=1,Linecode=CAB202_3_1,Length=0.189379000,Units=km
new line.TR1046338 bus1=BMT123275905.1,bus2=BMT123275912.1,Phases=1,Linecode=CAB202_3_1,Length=0.060691000,Units=km
new line.TR1046345 bus1=BMT123276129.1,bus2=BMT3448591B.1,Phases=1,Linecode=CAB202_3_1,Length=0.091248000,Units=km
new line.TR1046352 bus1=BMT1779126B.1,bus2=BMT1779133B.1,Phases=1,Linecode=CAB202_3_1,Length=0.061371000,Units=km
new line.TR1046359 bus1=BMT1779133B.1,bus2=BMT123275926.1,Phases=1,Linecode=CAB202_3_1,Length=0.063660000,Units=km
new line.TR1046366 bus1=BMT1779140B.1,bus2=BMT4904871B.1,Phases=1,Linecode=CAB202_3_1,Length=0.063660000,Units=km
new line.TR1046373 bus1=BMT123275954.1,bus2=BMT123275961.1,Phases=1,Linecode=CAB202_3_1,Length=0.302765000,Units=km
new line.TR1046380 bus1=BMT123275954.1,bus2=BMT4713358B.1,Phases=1,Linecode=CAB202_3_1,Length=0.084879000,Units=km
new line.TR1046387 bus1=BMT1779154B.1,bus2=BMT4904710B.1,Phases=1,Linecode=CAB202_3_1,Length=0.117680000,Units=km
new line.TR1046394 bus1=BMT177343373.2,bus2=BMT177343375.2,Phases=1,Linecode=CAB102_3_1,Length=0.046015000,Units=km
new line.TR1046401 bus1=BMT177343373.1.2.3,bus2=BMT4906047B.1.2.3,Phases=3,Linecode=CAB204_3_3,Length=0.095722000,Units=km
new line.TR1046408 bus1=BMT177343376.2,bus2=BMT177343377.2,Phases=1,Linecode=CAB202_3_1,Length=0.038025000,Units=km
new line.TR1046415 bus1=BMT177343376.1.2.3,bus2=BMT1779175B.1.2.3,Phases=3,Linecode=CAB204_3_3,Length=0.308622000,Units=km
new line.TR1046422 bus1=BMT1779175B.1.2.3,bus2=BMT177343378.1.2.3,Phases=3,Linecode=CAB204_3_3,Length=0.110257000,Units=km
new line.TR1046429 bus1=BMT177343378.3,bus2=BMT177343379.3,Phases=1,Linecode=CAB202_3_1,Length=0.093710000,Units=km
new line.TR1046436 bus1=BMT177343378.1.2.3,bus2=BMT4904885B.1.2.3,Phases=3,Linecode=CAB204_3_3,Length=0.107263000,Units=km
new line.TR1046443 bus1=BMT177343380.1,bus2=BMT177343381.1,Phases=1,Linecode=CAB103_3_1,Length=0.054396000,Units=km
new line.TR1046450 bus1=BMT177343380.1.2.3,bus2=BMT4904892B.1.2.3,Phases=3,Linecode=CAB204_3_3,Length=0.257176000,Units=km
new line.TR1046457 bus1=BMT177343383.1.2.3,bus2=BMT1779210B.1.2.3,Phases=3,Linecode=CAB204_3_3,Length=0.093223000,Units=km
new line.TR1046471 bus1=BMT177343724.3,bus2=BMT177343725.3,Phases=1,Linecode=CAB202_3_1,Length=0.336268000,Units=km
new line.TR1046478 bus1=BMT177343724.1.2.3,bus2=BMT1779553B.1.2.3,Phases=3,Linecode=CAB202_3_3,Length=0.087171000,Units=km
new line.TR1046485 bus1=BMT1779210B.1.2.3,bus2=BMT123270746.1.2.3,Phases=3,Linecode=CAB204_3_3,Length=0.118849000,Units=km
new line.TR1046492 bus1=BMT123270746.3,bus2=BMT2801245B.3,Phases=1,Linecode=CAB202_3_1,Length=0.007813000,Units=km
new line.TR1046506 bus1=BMT1779224B.1,bus2=BMT168032473.1,Phases=1,Linecode=CAB202_3_1,Length=0.102209000,Units=km
new line.TR1046513 bus1=BMT163892100.1,bus2=BMT4911234B.1,Phases=1,Linecode=CAB202_3_1,Length=0.119458000,Units=km
new line.TR1046520 bus1=BMT1779238B.1,bus2=BMT4909981B.1,Phases=1,Linecode=CAB202_3_1,Length=0.119546000,Units=km
new line.TR1046527 bus1=BMT123270823.1,bus2=BMT123270830.1,Phases=1,Linecode=CAB202_3_1,Length=0.098440000,Units=km
new line.TR1046534 bus1=BMT123271663.1,bus2=BMT4911255B.1,Phases=1,Linecode=CAB202_3_1,Length=0.227373000,Units=km
new line.TR1046541 bus1=BMT123271670.1,bus2=BMT123271677.1,Phases=1,Linecode=CAB202_3_1,Length=0.119077000,Units=km
new line.TR1046548 bus1=BMT123271670.1,bus2=BMT123271684.1,Phases=1,Linecode=CAB202_3_1,Length=0.385842000,Units=km
new line.TR1046555 bus1=BMT123271642.1,bus2=BMT123271649.1,Phases=1,Linecode=CAB102_3_1,Length=0.080736000,Units=km
new line.TR1046562 bus1=BMT123270830.1,bus2=BMT163892101.1,Phases=1,Linecode=CAB202_3_1,Length=0.330310000,Units=km
new line.TR1046569 bus1=BMT163892101.1,bus2=BMT163892102.1,Phases=1,Linecode=CAB202_3_1,Length=0.174828000,Units=km
new line.TR1046576 bus1=BMT163892101.1,bus2=BMT4913103B.1,Phases=1,Linecode=CAB202_3_1,Length=0.068433000,Units=km
new line.TR1046583 bus1=BMT123270851.1,bus2=BMT123270858.1,Phases=1,Linecode=CAB202_3_1,Length=0.008065000,Units=km
new line.TR1046590 bus1=BMT123271579.1,bus2=BMT123271586.1,Phases=1,Linecode=CAB202_3_1,Length=0.145763000,Units=km
new line.TR1046597 bus1=BMT123270851.1,bus2=BMT163892103.1,Phases=1,Linecode=CAB202_3_1,Length=0.095163000,Units=km
new line.TR1046604 bus1=BMT123270963.1,bus2=BMT1779357B.1,Phases=1,Linecode=CAB202_3_1,Length=0.043397000,Units=km
new line.TR1046611 bus1=BMT123271586.1,bus2=BMT123271593.1,Phases=1,Linecode=CAB103_3_1,Length=0.039231000,Units=km
new line.TR1046618 bus1=BMT123271586.1,bus2=BMT4913110B.1,Phases=1,Linecode=CAB102_3_1,Length=0.064372000,Units=km
new line.TR1046625 bus1=BMT1779294B.1,bus2=BMT4913404B.1,Phases=1,Linecode=CAB202_3_1,Length=0.121868000,Units=km
new line.TR1046632 bus1=BMT123270900.1,bus2=BMT163892109.1,Phases=1,Linecode=CAB202_3_1,Length=0.108262000,Units=km
new line.TR1048424 bus1=BMT123288085.1,bus2=BMT174926647.1,Phases=1,Linecode=CAB202_3_1,Length=0.148688000,Units=km
new line.TR1048431 bus1=BMT123288211.1,bus2=BMT4900832B.1,Phases=1,Linecode=CAB202_3_1,Length=0.094620000,Units=km
new line.TR1048438 bus1=BMT174926647.1,bus2=BMT174926648.1,Phases=1,Linecode=CAB102_3_1,Length=0.038221000,Units=km
new line.TR1048445 bus1=BMT174926647.1,bus2=BMT4900643B.1,Phases=1,Linecode=CAB202_3_1,Length=0.122806000,Units=km
new line.TR1048452 bus1=BMT123288232.1,bus2=BMT123288239.1,Phases=1,Linecode=CAB202_3_1,Length=0.176712000,Units=km
new line.TR1048459 bus1=BMT1780421B.1,bus2=BMT4900650B.1,Phases=1,Linecode=CAB202_3_1,Length=0.130898000,Units=km
new line.TR1048466 bus1=BMT123288106.1,bus2=BMT123288113.1,Phases=1,Linecode=CAB202_3_1,Length=0.015561000,Units=km
new line.TR1048473 bus1=BMT123288106.1,bus2=BMT4900671B.1,Phases=1,Linecode=CAB202_3_1,Length=0.183519000,Units=km
new line.TR1048480 bus1=BMT123288176.1,bus2=BMT4900846B.1,Phases=1,Linecode=CAB202_3_1,Length=0.095158000,Units=km
new line.TR1048487 bus1=BMT1780435B.1,bus2=BMT123288120.1,Phases=1,Linecode=CAB202_3_1,Length=0.271228000,Units=km
new line.TR1048494 bus1=BMT123288183.1,bus2=BMT123288190.1,Phases=1,Linecode=CAB102_3_1,Length=0.016160000,Units=km
new line.TR1048501 bus1=BMT123288183.1,bus2=BMT4900727B.1,Phases=1,Linecode=CAB202_3_1,Length=0.127980000,Units=km
new line.TR1048508 bus1=BMT123288134.1,bus2=BMT4900839B.1,Phases=1,Linecode=CAB202_3_1,Length=0.093256000,Units=km
new line.TR1048515 bus1=BMT1780456B.1,bus2=BMT4900692B.1,Phases=1,Linecode=CAB202_3_1,Length=0.145539000,Units=km
new line.TR1048522 bus1=BMT1780463B.1,bus2=BMT4900748B.1,Phases=1,Linecode=CAB202_3_1,Length=0.079098000,Units=km
new line.TR1048529 bus1=BMT1780470B.1,bus2=BMT174926649.1,Phases=1,Linecode=CAB202_3_1,Length=0.182370000,Units=km
new line.TR1048536 bus1=BMT1780477B.1,bus2=BMT4902470B.1,Phases=1,Linecode=CAB202_3_1,Length=0.091048000,Units=km
new line.TR1048543 bus1=BMT174284121.1,bus2=BMT4781251B.1,Phases=1,Linecode=CAB202_3_1,Length=0.045631000,Units=km
new line.TR1048550 bus1=BMT174284121.1,bus2=BMT123288316.1,Phases=1,Linecode=CAB202_3_1,Length=0.010003000,Units=km
new line.TR1048557 bus1=BMT174284121.1,bus2=BMT4902491B.1,Phases=1,Linecode=CAB202_3_1,Length=0.089719000,Units=km
new line.TR1048564 bus1=BMT1780491B.1,bus2=BMT1780498B.1,Phases=1,Linecode=CAB202_3_1,Length=0.280669000,Units=km
new line.TR1048571 bus1=BMT1780498B.1,bus2=BMT174926333.1,Phases=1,Linecode=CAB202_3_1,Length=0.090547000,Units=km
new line.TR1048578 bus1=BMT1780498B.1,bus2=BMT4902246B.1,Phases=1,Linecode=CAB202_3_1,Length=0.114803000,Units=km
new line.TR1048585 bus1=BMT123287791.1,bus2=BMT123287798.1,Phases=1,Linecode=CAB202_3_1,Length=0.038599000,Units=km
new line.TR1048592 bus1=BMT123287791.1,bus2=BMT4901980B.1,Phases=1,Linecode=CAB202_3_1,Length=0.034186000,Units=km
new line.TR1048599 bus1=BMT1780512B.1,bus2=BMT4901987B.1,Phases=1,Linecode=CAB202_3_1,Length=0.058258000,Units=km
new line.TR1048606 bus1=BMT123287812.1,bus2=BMT4901994B.1,Phases=1,Linecode=CAB202_3_1,Length=0.144973000,Units=km
new line.TR1048613 bus1=BMT123287819.1,bus2=BMT123287826.1,Phases=1,Linecode=CAB202_3_1,Length=0.073805000,Units=km
new line.TR1048620 bus1=BMT123287819.1,bus2=BMT123287833.1,Phases=1,Linecode=CAB202_3_1,Length=0.122649000,Units=km
new line.TR1048627 bus1=BMT123287833.1,bus2=BMT123287840.1,Phases=1,Linecode=CAB202_3_1,Length=0.196843000,Units=km
new line.TR1048634 bus1=BMT123287833.1,bus2=BMT123287847.1,Phases=1,Linecode=CAB202_3_1,Length=0.132046000,Units=km
new line.TR1048641 bus1=BMT123287847.1,bus2=BMT123287854.1,Phases=1,Linecode=CAB202_3_1,Length=0.132948000,Units=km
new line.TR1048648 bus1=BMT123287875.1,bus2=BMT123287882.1,Phases=1,Linecode=CAB202_3_1,Length=0.157080000,Units=km
new line.TR1048655 bus1=BMT123287847.1,bus2=BMT4884956B.1,Phases=1,Linecode=CAB202_3_1,Length=0.045013000,Units=km
new line.TR1048662 bus1=BMT123288785.1,bus2=BMT123288792.1,Phases=1,Linecode=CAB202_3_1,Length=0.070200000,Units=km
new line.TR1048669 bus1=BMT123288799.1,bus2=BMT123288806.1,Phases=1,Linecode=CAB202_3_1,Length=0.114594000,Units=km
new line.TR1048676 bus1=BMT174654907.1,bus2=BMT4899558B.1,Phases=1,Linecode=CAB202_3_1,Length=0.130550000,Units=km
new line.TR1048683 bus1=BMT174654907.1,bus2=BMT4899565B.1,Phases=1,Linecode=CAB202_3_1,Length=0.103844000,Units=km
new line.TR1048690 bus1=BMT1780561B.1,bus2=BMT4900111B.1,Phases=1,Linecode=CAB202_3_1,Length=0.091472000,Units=km
new line.TR1048697 bus1=BMT174654908.1,bus2=BMT174654910.1,Phases=1,Linecode=CAB202_3_1,Length=0.093329000,Units=km
new line.TR1048704 bus1=BMT174654908.1,bus2=BMT123288673.1,Phases=1,Linecode=CAB202_3_1,Length=0.073704000,Units=km
new line.TR1048711 bus1=BMT174654908.1,bus2=BMT123288680.1,Phases=1,Linecode=CAB202_3_1,Length=0.079629000,Units=km
new line.TR1048718 bus1=BMT123288673.1,bus2=BMT174654911.1,Phases=1,Linecode=CAB202_3_1,Length=0.068285000,Units=km
new line.TR1048725 bus1=BMT123288694.1,bus2=BMT1780582B.1,Phases=1,Linecode=CAB202_3_1,Length=0.076965000,Units=km
new line.TR1046639 bus1=BMT123271334.1,bus2=BMT4913418B.1,Phases=1,Linecode=CAB202_3_1,Length=0.168177000,Units=km
new line.TR1046646 bus1=BMT163892109.1,bus2=BMT163892110.1,Phases=1,Linecode=CAB202_3_1,Length=0.145044000,Units=km
new line.TR1046653 bus1=BMT163892109.1,bus2=BMT123270928.1,Phases=1,Linecode=CAB202_3_1,Length=0.123980000,Units=km
new line.TR1046660 bus1=BMT163892109.1,bus2=BMT4913432B.1,Phases=1,Linecode=CAB202_3_1,Length=0.126188000,Units=km
new line.TR1046674 bus1=BMT123271355.1,bus2=BMT123271362.1,Phases=1,Linecode=CAB202_3_1,Length=0.077724000,Units=km
new line.TR1046681 bus1=BMT1779329B.1,bus2=BMT4913117B.1,Phases=1,Linecode=CAB102_3_1,Length=0.057159000,Units=km
new line.TR1046688 bus1=BMT123271607.1,bus2=BMT4913124B.1,Phases=1,Linecode=CAB202_3_1,Length=0.091709000,Units=km
new line.TR1046695 bus1=BMT123271614.1,bus2=BMT123271621.1,Phases=1,Linecode=CAB102_3_1,Length=0.055588000,Units=km
new line.TR1046702 bus1=BMT123271614.1,bus2=BMT4913194B.1,Phases=1,Linecode=CAB202_3_1,Length=0.087006000,Units=km
new line.TR1046709 bus1=BMT1779350B.1,bus2=BMT123271628.1,Phases=1,Linecode=CAB202_3_1,Length=0.053777000,Units=km
new line.TR1046716 bus1=BMT1779357B.1,bus2=BMT4913131B.1,Phases=1,Linecode=CAB202_3_1,Length=0.061867000,Units=km
new line.TR1046723 bus1=BMT123271110.1,bus2=BMT123271117.1,Phases=1,Linecode=CAB202_3_1,Length=0.090279000,Units=km
new line.TR1046730 bus1=BMT123270977.1,bus2=BMT123270984.1,Phases=1,Linecode=CAB202_3_1,Length=0.046286000,Units=km
new line.TR1046737 bus1=BMT123271117.1,bus2=BMT123271124.1,Phases=1,Linecode=CAB202_3_1,Length=0.130584000,Units=km
new line.TR1046744 bus1=BMT123271117.1,bus2=BMT123271131.1,Phases=1,Linecode=CAB103_3_1,Length=0.030010000,Units=km
new line.TR1046751 bus1=BMT135150600.1,bus2=BMT135150607.1,Phases=1,Linecode=CAB202_3_1,Length=0.296292000,Units=km
new line.TR1046758 bus1=BMT135150607.1,bus2=BMT135150614.1,Phases=1,Linecode=CAB202_3_1,Length=0.053253000,Units=km
new line.TR1046765 bus1=BMT151860345.1,bus2=BMT4913250B.1,Phases=1,Linecode=CAB202_3_1,Length=0.095724000,Units=km
new line.TR1046772 bus1=BMT151860346.1,bus2=BMT151860347.1,Phases=1,Linecode=CAB202_3_1,Length=0.119910000,Units=km
new line.TR1046779 bus1=BMT151860346.1,bus2=BMT1779399B.1,Phases=1,Linecode=CAB202_3_1,Length=0.061421000,Units=km
new line.TR1046786 bus1=BMT1779399B.1,bus2=BMT1779406B.1,Phases=1,Linecode=CAB202_3_1,Length=0.284082000,Units=km
new line.TR1046793 bus1=BMT1779406B.1,bus2=BMT151860348.1,Phases=1,Linecode=CAB202_3_1,Length=0.076967000,Units=km
new line.TR1046800 bus1=BMT123271040.1,bus2=BMT151860350.1,Phases=1,Linecode=CAB202_3_1,Length=0.092448000,Units=km
new line.TR1046807 bus1=BMT166680758.1,bus2=BMT1779427B.1,Phases=1,Linecode=CAB202_3_1,Length=0.302769000,Units=km
new line.TR1046814 bus1=BMT151860350.1,bus2=BMT151860351.1,Phases=1,Linecode=CAB102_3_1,Length=0.072694000,Units=km
new line.TR1046821 bus1=BMT1779427B.1,bus2=BMT166680759.1,Phases=1,Linecode=CAB202_3_1,Length=0.075741000,Units=km
new line.TR1046828 bus1=BMT166680762.1,bus2=BMT1779441B.1,Phases=1,Linecode=CAB202_3_1,Length=0.146342000,Units=km
new line.TR1046835 bus1=BMT1779441B.1,bus2=BMT4913299B.1,Phases=1,Linecode=CAB202_3_1,Length=0.081862000,Units=km
new line.TR1046842 bus1=BMT1779448B.1,bus2=BMT4913348B.1,Phases=1,Linecode=CAB202_3_1,Length=0.118106000,Units=km
new line.TR1046849 bus1=BMT151860351.1,bus2=BMT151860352.1,Phases=1,Linecode=CAB202_3_1,Length=0.085456000,Units=km
new line.TR1046856 bus1=BMT151860351.1,bus2=BMT151860353.1,Phases=1,Linecode=CAB102_3_1,Length=0.074355000,Units=km
new line.TR1046863 bus1=BMT123271124.1,bus2=BMT123271138.1,Phases=1,Linecode=CAB103_3_1,Length=0.067290000,Units=km
new line.TR1046870 bus1=BMT123271887.1,bus2=BMT123271894.1,Phases=1,Linecode=CAB202_3_1,Length=0.186276000,Units=km
new line.TR1046877 bus1=BMT123271684.1,bus2=BMT123271691.1,Phases=1,Linecode=CAB202_3_1,Length=0.147676000,Units=km
new line.TR1046884 bus1=BMT123271684.1,bus2=BMT2801252B.1,Phases=1,Linecode=CAB202_3_1,Length=0.011184000,Units=km
new line.TR1046891 bus1=BMT123271894.1,bus2=BMT123271901.1,Phases=1,Linecode=CAB102_3_1,Length=0.075497000,Units=km
new line.TR1046898 bus1=BMT123271691.1,bus2=BMT123271705.1,Phases=1,Linecode=CAB202_3_1,Length=0.162559000,Units=km
new line.TR1046905 bus1=BMT123271712.1,bus2=BMT4913012B.1,Phases=1,Linecode=CAB202_3_1,Length=0.105794000,Units=km
new line.TR1046912 bus1=BMT123271719.1,bus2=BMT123271726.1,Phases=1,Linecode=CAB102_3_1,Length=0.023095000,Units=km
new line.TR1046919 bus1=BMT123271719.1,bus2=BMT1779497B.1,Phases=1,Linecode=CAB202_3_1,Length=0.123369000,Units=km
new line.TR1046926 bus1=BMT1779497B.1,bus2=BMT123271733.1,Phases=1,Linecode=CAB202_3_1,Length=0.096634000,Units=km
new line.TR1046933 bus1=BMT123271733.1,bus2=BMT123271740.1,Phases=1,Linecode=CAB202_3_1,Length=0.089388000,Units=km
new line.TR1046940 bus1=BMT123271747.1,bus2=BMT1779511B.1,Phases=1,Linecode=CAB202_3_1,Length=0.139853000,Units=km
new line.TR1046947 bus1=BMT1779511B.1,bus2=BMT4913019B.1,Phases=1,Linecode=CAB202_3_1,Length=0.097526000,Units=km
new line.TR1044581 bus1=BMT123269332.1.2.3,bus2=BMT123269339.1.2.3,Phases=3,Linecode=CAB102_3_3,Length=0.042593000,Units=km
new line.TR1044616 bus1=BMT1778069B.3,bus2=BMT4898011B.3,Phases=1,Linecode=CAB202_3_1,Length=0.112805000,Units=km
new line.TR1044623 bus1=BMT176946819.3,bus2=BMT4898032B.3,Phases=1,Linecode=CAB202_3_1,Length=0.110057000,Units=km
new line.TR1044630 bus1=BMT1778083B.3,bus2=BMT176946822.3,Phases=1,Linecode=CAB202_3_1,Length=0.225928000,Units=km
new line.TR1044637 bus1=BMT1778090B.3,bus2=BMT4898046B.3,Phases=1,Linecode=CAB202_3_1,Length=0.189822000,Units=km
new line.TR1044644 bus1=BMT1778097B.3,bus2=BMT4898095B.3,Phases=1,Linecode=CAB202_3_1,Length=0.106316000,Units=km
new line.TR1044651 bus1=BMT1778104B.3,bus2=BMT4898137B.3,Phases=1,Linecode=CAB202_3_1,Length=0.098713000,Units=km
new line.TR1044658 bus1=BMT1778111B.3,bus2=BMT4898158B.3,Phases=1,Linecode=CAB202_3_1,Length=0.149138000,Units=km
new line.TR1044665 bus1=BMT1778118B.3,bus2=BMT176946830.3,Phases=1,Linecode=CAB202_3_1,Length=0.061931000,Units=km
new line.TR1044672 bus1=BMT1778125B.3,bus2=BMT1778132B.3,Phases=1,Linecode=CAB202_3_1,Length=0.269399000,Units=km
new line.TR1044679 bus1=BMT1778132B.3,bus2=BMT4898207B.3,Phases=1,Linecode=CAB202_3_1,Length=0.124655000,Units=km
new line.TR1044686 bus1=BMT123291144.3,bus2=BMT176946831.3,Phases=1,Linecode=CAB103_3_1,Length=0.077845000,Units=km
new line.TR1044693 bus1=BMT149693588.3,bus2=BMT4898326B.3,Phases=1,Linecode=CAB202_3_1,Length=0.308975000,Units=km
new line.TR1044763 bus1=BMT174730303.1.2.3,bus2=BMT4898298B.1.2.3,Phases=3,Linecode=CAB204_3_3,Length=0.077818000,Units=km
new line.TR1044777 bus1=BMT178918060.2,bus2=BMT178918062.2,Phases=1,Linecode=CAB202_3_1,Length=0.182782000,Units=km
new line.TR1044784 bus1=BMT178918060.2,bus2=BMT4898739B.2,Phases=1,Linecode=CAB202_3_1,Length=0.170407000,Units=km
new line.TR1044791 bus1=BMT1778209B.1.2.3,bus2=BMT149561830.1.2.3,Phases=3,Linecode=CAB204_3_3,Length=0.059255000,Units=km
new line.TR1044805 bus1=BMT149561830.1.2.3,bus2=BMT146671669.1.2.3,Phases=3,Linecode=CAB204_3_3,Length=0.117083000,Units=km
new line.TR1044812 bus1=BMT178193194.2,bus2=BMT178193199.2,Phases=1,Linecode=CAB202_3_1,Length=0.105621000,Units=km
new line.TR1044819 bus1=BMT178193194.1.2.3,bus2=BMT4898718B.1.2.3,Phases=3,Linecode=CAB107_3_3,Length=0.068905000,Units=km
new line.TR1044826 bus1=BMT123270123.1.2.3,bus2=BMT4899285B.1.2.3,Phases=3,Linecode=CAB204_3_3,Length=0.099050000,Units=km
new line.TR1044833 bus1=BMT135011202.1,bus2=BMT4899299B.1,Phases=1,Linecode=CAB202_3_1,Length=0.115352000,Units=km
new line.TR1044847 bus1=BMT123270130.1.2.3,bus2=BMT4899684B.1.2.3,Phases=3,Linecode=CAB204_3_3,Length=0.095302000,Units=km
new line.TR1044854 bus1=BMT123289373.3,bus2=BMT4899824B.3,Phases=1,Linecode=CAB202_3_1,Length=0.124074000,Units=km
new line.TR1044861 bus1=BMT123289387.3,bus2=BMT123289401.3,Phases=1,Linecode=CAB202_3_1,Length=0.089838000,Units=km
new line.TR1044868 bus1=BMT158527770.3,bus2=BMT158527771.3,Phases=1,Linecode=CAB202_3_1,Length=0.087049000,Units=km
new line.TR1044875 bus1=BMT123289345.1,bus2=BMT123289352.1,Phases=1,Linecode=CAB202_3_1,Length=0.046404000,Units=km
new line.TR1044882 bus1=BMT123270144.1.2.3,bus2=BMT4899719B.1.2.3,Phases=3,Linecode=CAB204_3_3,Length=0.114804000,Units=km
new line.TR1044889 bus1=BMT123289352.1,bus2=BMT123289359.1,Phases=1,Linecode=CAB202_3_1,Length=0.091264000,Units=km
new line.TR1044896 bus1=BMT123289352.1,bus2=BMT123289366.1,Phases=1,Linecode=CAB202_3_1,Length=0.223980000,Units=km
new line.TR1044903 bus1=BMT1778265B.1.2.3,bus2=BMT4899726B.1.2.3,Phases=3,Linecode=CAB204_3_3,Length=0.060226000,Units=km
new line.TR1044931 bus1=BMT175193942.1,bus2=BMT175193943.1,Phases=1,Linecode=CAB102_3_1,Length=0.029130000,Units=km
new line.TR1044938 bus1=BMT175193942.1,bus2=BMT123289037.1,Phases=1,Linecode=CAB202_3_1,Length=0.371984000,Units=km
new line.TR1044945 bus1=BMT123270172.1.2.3,bus2=BMT4899747B.1.2.3,Phases=3,Linecode=CAB204_3_3,Length=0.082705000,Units=km
new line.TR1044952 bus1=BMT123288988.2,bus2=BMT4899985B.2,Phases=1,Linecode=CAB202_3_1,Length=0.084103000,Units=km
new line.TR1044959 bus1=BMT123288995.2,bus2=BMT123289002.2,Phases=1,Linecode=CAB202_3_1,Length=0.138750000,Units=km
new line.TR1044966 bus1=BMT123288995.2,bus2=BMT4899761B.2,Phases=1,Linecode=CAB202_3_1,Length=0.091329000,Units=km
new line.TR1044973 bus1=BMT175193933.3,bus2=BMT4899355B.3,Phases=1,Linecode=CAB202_3_1,Length=0.035239000,Units=km
new line.TR1044980 bus1=BMT175193933.1.2.3,bus2=BMT4899796B.1.2.3,Phases=3,Linecode=CAB204_3_3,Length=0.089430000,Units=km
new line.TR1044987 bus1=BMT1778314B.1.2.3,bus2=BMT4899348B.1.2.3,Phases=3,Linecode=CAB204_3_3,Length=0.089072000,Units=km
new line.TR1045001 bus1=BMT1778328B.1.2.3,bus2=BMT4899362B.1.2.3,Phases=3,Linecode=CAB204_3_3,Length=0.089581000,Units=km
new line.TR1045008 bus1=BMT174654572.1.2.3,bus2=BMT4899383B.1.2.3,Phases=3,Linecode=CAB204_3_3,Length=0.128541000,Units=km
new line.TR1045015 bus1=BMT174654919.1,bus2=BMT174654905.1,Phases=1,Linecode=CAB202_3_1,Length=0.123004000,Units=km
new line.TR1045022 bus1=BMT123288638.1,bus2=BMT4899537B.1,Phases=1,Linecode=CAB202_3_1,Length=0.151313000,Units=km
new line.TR1048732 bus1=BMT1780582B.1,bus2=BMT4899600B.1,Phases=1,Linecode=CAB202_3_1,Length=0.068116000,Units=km
new line.TR1048739 bus1=BMT1780589B.1,bus2=BMT4899663B.1,Phases=1,Linecode=CAB202_3_1,Length=0.215401000,Units=km
new line.TR1048746 bus1=BMT123288806.1,bus2=BMT123288813.1,Phases=1,Linecode=CAB202_3_1,Length=0.009852000,Units=km
new line.TR1048753 bus1=BMT123288820.1,bus2=BMT123288827.1,Phases=1,Linecode=CAB202_3_1,Length=0.299291000,Units=km
new line.TR1048760 bus1=BMT123288827.1,bus2=BMT1780610B.1,Phases=1,Linecode=CAB202_3_1,Length=0.071611000,Units=km
new line.TR1048767 bus1=BMT149705728.1,bus2=BMT149705729.1,Phases=1,Linecode=CAB202_3_1,Length=0.128042000,Units=km
new line.TR1048774 bus1=BMT1780610B.1,bus2=BMT123288834.1,Phases=1,Linecode=CAB202_3_1,Length=0.158076000,Units=km
new line.TR1048781 bus1=BMT123288848.1,bus2=BMT4900538B.1,Phases=1,Linecode=CAB202_3_1,Length=0.052713000,Units=km
new line.TR1048788 bus1=BMT123288848.1,bus2=BMT5248508B.1,Phases=1,Linecode=CAB202_3_1,Length=0.067140000,Units=km
new line.TR1048795 bus1=BMT123288883.1,bus2=BMT4900916B.1,Phases=1,Linecode=CAB202_3_1,Length=0.252490000,Units=km
new line.TR1048802 bus1=BMT123288897.1,bus2=BMT4900923B.1,Phases=1,Linecode=CAB202_3_1,Length=0.130181000,Units=km
new line.TR1048809 bus1=BMT1780631B.1,bus2=BMT4900930B.1,Phases=1,Linecode=CAB202_3_1,Length=0.119405000,Units=km
new line.TR1048816 bus1=BMT1780638B.1,bus2=BMT1780645B.1,Phases=1,Linecode=CAB202_3_1,Length=0.112573000,Units=km
new line.TR1048823 bus1=BMT1780645B.1,bus2=BMT4900958B.1,Phases=1,Linecode=CAB202_3_1,Length=0.121235000,Units=km
new line.TR1048830 bus1=BMT123289037.1,bus2=BMT123289044.1,Phases=1,Linecode=CAB202_3_1,Length=0.090581000,Units=km
new line.TR1048837 bus1=BMT123289317.1,bus2=BMT123289324.1,Phases=1,Linecode=CAB202_3_1,Length=0.115386000,Units=km
new line.TR1048844 bus1=BMT123289044.1,bus2=BMT175193944.1,Phases=1,Linecode=CAB202_3_1,Length=0.116078000,Units=km
new line.TR1048851 bus1=BMT129112533.1,bus2=BMT129112540.1,Phases=1,Linecode=CAB202_3_1,Length=0.123041000,Units=km
new line.TR1048858 bus1=BMT123289324.1,bus2=BMT123289331.1,Phases=1,Linecode=CAB202_3_1,Length=0.384790000,Units=km
new line.TR1048865 bus1=BMT123289324.1,bus2=BMT123289338.1,Phases=1,Linecode=CAB202_3_1,Length=0.025088000,Units=km
new line.TR1048872 bus1=BMT129112540.1,bus2=BMT4899411B.1,Phases=1,Linecode=CAB202_3_1,Length=0.276752000,Units=km
new line.TR1048879 bus1=BMT129112757.1,bus2=BMT4899418B.1,Phases=1,Linecode=CAB202_3_1,Length=0.061419000,Units=km
new line.TR1048886 bus1=BMT129048301.1,bus2=BMT129048308.1,Phases=1,Linecode=CAB202_3_1,Length=0.040025000,Units=km
new line.TR1048893 bus1=BMT123289072.1,bus2=BMT129112547.1,Phases=1,Linecode=CAB202_3_1,Length=0.381543000,Units=km
...
