2024_89_CemigReconfigurationCases/1_AlimsCemig/MIB15/MIB15ChavesMT.dss
new line.CTR127854 bus1=BMT123282177.2,bus2=BMT123283283.2,Phases=1,LineCode=tieSwitch1,Length=0.001,Units=km,switch=T !numEQ NUMEQ:83608  - Data de conexão anterior06/2011.
new line.CTR128092 bus1=BMT163752614.3,bus2=BMT163826289.3,Phases=1,LineCode=tieSwitch1,Length=0.001,Units=km,switch=T !numEQ NUMEQ:83692  - Data de conexão anterior06/2011.
new line.CTR128106 bus1=BMT139858709.1.2.3,bus2=BMT143841345.1.2.3,Phases=3,LineCode=tieSwitch,Length=0.001,Units=km,switch=T !numEQ NUMEQ:40274  - Data de conexão anterior06/2011.
new line.CTR129422 bus1=BMT123288120.1,bus2=BMT123288148.1,Phases=1,LineCode=tieSwitch1,Length=0.001,Units=km,switch=T !numEQ NUMEQ:145665  - Data de conexão anterior06/2011.
new line.CTR147531 bus1=BMT123291144.3,bus2=BMT149693588.3,Phases=1,LineCode=tieSwitch1,Length=0.001,Units=km,switch=T !numEQ NUMEQ:129525  - Data de conexão anterior06/2011.
new line.CTR16736 bus1=BMT123270389.2,bus2=BMT123276612.2,Phases=1,LineCode=tieSwitch1,Length=0.001,Units=km,switch=T !numEQ NUMEQ:182762  - Data de conexão anterior06/2011.
new line.CTR181992 bus1=BMT123286755.1.2.3,bus2=BMT123286762.1.2.3,Phases=3,LineCode=tieSwitch,Length=0.001,Units=km,switch=T !numEQ NUMEQ:40442  - Data de conexão anterior06/2011.
new line.CTR181999 bus1=BMT123270319.3,bus2=BMT123287175.3,Phases=1,LineCode=tieSwitch1,Length=0.001,Units=km,switch=T !numEQ NUMEQ:40445  - Data de conexão anterior06/2011.
new line.CTR182006 bus1=BMT123286699.3,bus2=BMT123287161.3,Phases=1,LineCode=tieSwitch1,Length=0.001,Units=km,switch=T !numEQ NUMEQ:39482  - Data de conexão anterior06/2011.
new line.CTR182013 bus1=BMT139868201.1.2.3,bus2=BMT180155603.1.2.3,Phases=3,LineCode=tieSwitch,Length=0.001,Units=km,switch=T !numEQ NUMEQ:40463  - Data de conexão anterior06/2011.
new line.CTR182020 bus1=BMT123287504.3,bus2=BMT151357507.3,Phases=1,LineCode=tieSwitch1,Length=0.001,Units=km,switch=T !numEQ NUMEQ:40446  - Data de conexão anterior06/2011.
new line.CTR182118 bus1=BMT123281190.1.2.3,bus2=BMT135718132.1.2.3,Phases=3,LineCode=tieSwitch,Length=0.001,Units=km,switch=T !numEQ NUMEQ:40461  - Data de conexão anterior06/2011.
new line.CTR182125 bus1=BMT123288673.1,bus2=BMT123288694.1,Phases=1,LineCode=tieSwitch1,Length=0.001,Units=km,switch=T !numEQ NUMEQ:40447  - Data de conexão anterior06/2011.
new line.CTR182132 bus1=BMT123288113.1,bus2=BMT123288134.1,Phases=1,LineCode=tieSwitch1,Length=0.001,Units=km,switch=T !numEQ NUMEQ:40443  - Data de conexão anterior06/2011.
new line.CTR182139 bus1=BMT123286475.3,bus2=BMT168030190.3,Phases=1,LineCode=tieSwitch1,Length=0.001,Units=km,switch=T !numEQ NUMEQ:40464  - Data de conexão anterior06/2011.
new line.CTR182146 bus1=BMT123284935.3,bus2=BMT164939066.3,Phases=1,LineCode=tieSwitch1,Length=0.001,Units=km,switch=T !numEQ NUMEQ:40466  - Data de conexão anterior06/2011.
new line.CTR182153 bus1=BMT123281239.1.2.3,bus2=BMT174651336.1.2.3,Phases=3,LineCode=tieSwitch,Length=0.001,Units=km,switch=T !numEQ NUMEQ:40467  - Data de conexão anterior06/2011.
new line.CTR182160 bus1=BMT132766449.1.2.3,bus2=BMT135260255.1.2.3,Phases=3,LineCode=tieSwitch,Length=0.001,Units=km,switch=T !numEQ NUMEQ:40471  - Data de conexão anterior06/2011.
new line.CTR182167 bus1=BMT123281421.3,bus2=BMT123281456.3,Phases=1,LineCode=tieSwitch1,Length=0.001,Units=km,switch=T !numEQ NUMEQ:40473  - Data de conexão anterior06/2011.
new line.CTR182174 bus1=BMT176148216.1.2.3,bus2=BMT123270480.1.2.3,Phases=3,LineCode=tieSwitch,Length=0.001,Units=km,switch=T !numEQ NUMEQ:40474  - Data de conexão anterior06/2011.
new line.CTR182181 bus1=BMT123276374.3,bus2=BMT172227356.3,Phases=1,LineCode=tieSwitch1,Length=0.001,Units=km,switch=T !numEQ NUMEQ:40476  - Data de conexão anterior06/2011.
new line.CTR182195 bus1=BMT142132414.2,bus2=BMT142132827.2,Phases=1,LineCode=tieSwitch1,Length=0.001,Units=km,switch=T !numEQ NUMEQ:40481  - Data de conexão anterior06/2011.
new line.CTR182216 bus1=BMT123270641.1.2.3,bus2=BMT177343371.1.2.3,Phases=3,LineCode=tieSwitch,Length=0.001,Units=km,switch=T !numEQ NUMEQ:40477  - Data de conexão anterior06/2011.
new line.CTR182258 bus1=BMT123271691.1,bus2=BMT123271712.1,Phases=1,LineCode=tieSwitch1,Length=0.001,Units=km,switch=T !numEQ NUMEQ:40491  - Data de conexão anterior06/2011.
new line.CTR182265 bus1=BMT123281281.1.2.3,bus2=BMT177381163.1.2.3,Phases=3,LineCode=tieSwitch,Length=0.001,Units=km,switch=T !numEQ NUMEQ:40468  - Data de conexão anterior06/2011.
new line.CTR182272 bus1=BMT123281323.2,bus2=BMT135014037.2,Phases=1,LineCode=tieSwitch1,Length=0.001,Units=km,switch=T !numEQ NUMEQ:40469  - Data de conexão anterior06/2011.
new line.CTR182279 bus1=BMT123281344.1,bus2=BMT179121777.1,Phases=1,LineCode=tieSwitch1,Length=0.001,Units=km,switch=T !numEQ NUMEQ:40470  - Data de conexão anterior06/2011.
new line.CTR182286 bus1=BMT123281393.3,bus2=BMT161929075.3,Phases=1,LineCode=tieSwitch1,Length=0.001,Units=km,switch=T !numEQ NUMEQ:40472  - Data de conexão anterior06/2011.
new line.CTR182300 bus1=BMT123271733.1,bus2=BMT123271747.1,Phases=1,LineCode=tieSwitch1,Length=0.001,Units=km,switch=T !numEQ NUMEQ:40492  - Data de conexão anterior06/2011.
new line.CTR182307 bus1=BMT123270851.1,bus2=BMT123271579.1,Phases=1,LineCode=tieSwitch1,Length=0.001,Units=km,switch=T !numEQ NUMEQ:40493  - Data de conexão anterior06/2011.
new line.CTR182314 bus1=BMT123270900.1,bus2=BMT123271334.1,Phases=1,LineCode=tieSwitch1,Length=0.001,Units=km,switch=T !numEQ NUMEQ:40494  - Data de conexão anterior06/2011.
new line.CTR1994 bus1=BMT123288883.1,bus2=BMT123288897.1,Phases=1,LineCode=tieSwitch1,Length=0.001,Units=km,switch=T !numEQ NUMEQ:41954  - Data de conexão anterior06/2011.
new line.CTR224615 bus1=BMT139942954.3,bus2=BMT159144561.3,Phases=1,LineCode=tieSwitch1,Length=0.001,Units=km,switch=T !numEQ NUMEQ:217782  - Data de conexão anterior06/2011.
new line.CTR224636 bus1=BMT123273245.3,bus2=BMT177899776.3,Phases=1,LineCode=tieSwitch1,Length=0.001,Units=km,switch=T !numEQ NUMEQ:26564  - Data de conexão anterior06/2011.
new line.CTR225679 bus1=BMT123276934.1,bus2=BMT178780931.1,Phases=1,LineCode=tieSwitch1,Length=0.001,Units=km,switch=T !numEQ NUMEQ:26492  - Data de conexão anterior06/2011.
new line.CTR225686 bus1=BMT123083601.3,bus2=BMT123083608.3,Phases=1,LineCode=tieSwitch1,Length=0.001,Units=km,switch=T !numEQ NUMEQ:26485  - Data de conexão anterior06/2011.
new line.CTR225693 bus1=BMT162131995.1.2.3,bus2=BMT123082768.1.2.3,Phases=3,LineCode=tieSwitch,Length=0.001,Units=km,switch=T !numEQ NUMEQ:26489  - Data de conexão anterior06/2011.
new line.CTR225700 bus1=BMT123082782.1.2.3,bus2=BMT123082852.1.2.3,Phases=3,LineCode=tieSwitch,Length=0.001,Units=km,switch=T !numEQ NUMEQ:26490  - Data de conexão anterior06/2011.
new line.CTR225707 bus1=BMT123082803.1.2.3,bus2=BMT123082824.1.2.3,Phases=3,LineCode=tieSwitch,Length=0.001,Units=km,switch=T !numEQ NUMEQ:26491  - Data de conexão anterior06/2011.
new line.CTR225798 bus1=BMT123083594.3,bus2=BMT123083650.3,Phases=1,LineCode=tieSwitch1,Length=0.001,Units=km,switch=T !numEQ NUMEQ:26486  - Data de conexão anterior06/2011.
new line.CTR249633 bus1=BMT123270417.2,bus2=BMT123276598.2,Phases=1,LineCode=tieSwitch1,Length=0.001,Units=km,switch=T !numEQ NUMEQ:182761  - Data de conexão anterior06/2011.
new line.CTR24982 bus1=BMT123277158.2,bus2=BMT160045308.2,Phases=1,LineCode=tieSwitch1,Length=0.001,Units=km,switch=T !numEQ NUMEQ:178789  - Data de conexão anterior06/2011.
new line.CTR251026 bus1=BMT123284956.3,bus2=BMT123286076.3,Phases=1,LineCode=tieSwitch1,Length=0.001,Units=km,switch=T !numEQ NUMEQ:1878  - Data de conexão anterior06/2011.
new line.CTR27523 bus1=BMT123270935.1,bus2=BMT164016191.1,Phases=1,LineCode=tieSwitch1,Length=0.001,Units=km,switch=T !numEQ NUMEQ:178112  - Data de conexão anterior06/2011.
new line.CTR276114 bus1=BMT123271453.1,bus2=BMT123271558.1,Phases=1,LineCode=tieSwitch1,Length=0.001,Units=km,switch=T !numEQ NUMEQ:157001  - Data de conexão anterior06/2011.
new line.CTR276632 bus1=BMT123285117.3,bus2=BMT176259234.3,Phases=1,LineCode=tieSwitch1,Length=0.001,Units=km,switch=T !numEQ NUMEQ:21989  - Data de conexão anterior06/2011.
new line.CTR276639 bus1=BMT139947819.1.2.3,bus2=BMT139951361.1.2.3,Phases=3,LineCode=tieSwitch,Length=0.001,Units=km,switch=T !numEQ NUMEQ:25869  - Data de conexão anterior06/2011.
new line.CTR276646 bus1=BMT178272443.3,bus2=BMT178279171.3,Phases=1,LineCode=tieSwitch1,Length=0.001,Units=km,switch=T !numEQ NUMEQ:335779  - Data de conexão anterior06/2011.
new line.CTR101338 bus1=BMT123278845.1,bus2=BMT123279209.1,Phases=1,LineCode=tieSwitch1,Length=0.001,Units=km,switch=T !numEQ NUMEQ:104778  - Data de conexão anterior06/2011.
new line.CTR101366 bus1=BMT173751052.2,bus2=BMT121610948.2,Phases=1,LineCode=tieSwitch1,Length=0.001,Units=km,switch=T !numEQ NUMEQ:104782  - Data de conexão anterior06/2011.
new line.CTR1483 bus1=BMT167950566.1.2.3,bus2=BMT158252827.1.2.3,Phases=3,LineCode=tieSwitch,Length=0.001,Units=km,switch=T !numEQ NUMEQ:39455  - Data de conexão anterior06/2011.
new line.CTR186129 bus1=BMT123269332.1.2.3,bus2=BMT154757622.1.2.3,Phases=3,LineCode=tieSwitch,Length=0.001,Units=km,switch=T !numEQ NUMEQ:39753  - Data de conexão anterior06/2011.
new line.CTR186150 bus1=BMT123271943.3,bus2=BMT176165893.3,Phases=1,LineCode=tieSwitch1,Length=0.001,Units=km,switch=T !numEQ NUMEQ:39752  - Data de conexão anterior06/2011.
new line.CTR187277 bus1=BMT123270326.1.2.3,bus2=BMT123276647.1.2.3,Phases=3,LineCode=tieSwitch,Length=0.001,Units=km,switch=T !numEQ NUMEQ:39480  - Data de conexão anterior06/2011.
new line.CTR187291 bus1=BMT123287805.1,bus2=BMT123287812.1,Phases=1,LineCode=tieSwitch1,Length=0.001,Units=km,switch=T !numEQ NUMEQ:39475  - Data de conexão anterior06/2011.
new line.CTR187326 bus1=BMT123286916.3,bus2=BMT123286944.3,Phases=1,LineCode=tieSwitch1,Length=0.001,Units=km,switch=T !numEQ NUMEQ:39484  - Data de conexão anterior06/2011.
new line.CTR187333 bus1=BMT123276654.1.2.3,bus2=BMT178193827.1.2.3,Phases=3,LineCode=tieSwitch,Length=0.001,Units=km,switch=T !numEQ NUMEQ:39481  - Data de conexão anterior06/2011.
new line.CTR187375 bus1=BMT123286727.3,bus2=BMT161844321.3,Phases=1,LineCode=tieSwitch1,Length=0.001,Units=km,switch=T !numEQ NUMEQ:39483  - Data de conexão anterior06/2011.
new line.CTR187382 bus1=BMT123288085.1,bus2=BMT123288211.1,Phases=1,LineCode=tieSwitch1,Length=0.001,Units=km,switch=T !numEQ NUMEQ:39473  - Data de conexão anterior06/2011.
new line.CTR187389 bus1=BMT123288106.1,bus2=BMT123288176.1,Phases=1,LineCode=tieSwitch1,Length=0.001,Units=km,switch=T !numEQ NUMEQ:39474  - Data de conexão anterior06/2011.
new line.CTR187396 bus1=BMT123270249.1.2.3,bus2=BMT151528952.1.2.3,Phases=3,LineCode=tieSwitch,Length=0.001,Units=km,switch=T !numEQ NUMEQ:39478  - Data de conexão anterior06/2011.
new line.CTR233799 bus1=BMT123280091.2,bus2=BMT123280105.2,Phases=1,LineCode=tieSwitch1,Length=0.001,Units=km,switch=T !numEQ NUMEQ:24713  - Data de conexão anterior06/2011.
new line.CTR260679 bus1=BMT123288008.1,bus2=BMT174284116.1,Phases=1,LineCode=tieSwitch1,Length=0.001,Units=km,switch=T !numEQ NUMEQ:39472  - Data de conexão anterior06/2011.
new line.CTR260686 bus1=BMT123288036.1,bus2=BMT123288274.1,Phases=1,LineCode=tieSwitch1,Length=0.001,Units=km,switch=T !numEQ NUMEQ:40444  - Data de conexão anterior06/2011.
new line.CTR260693 bus1=BMT123276661.1.2.3,bus2=BMT123276668.1.2.3,Phases=3,LineCode=tieSwitch,Length=0.001,Units=km,switch=T !numEQ NUMEQ:39487  - Data de conexão anterior06/2011.
new line.CTR260819 bus1=BMT123276794.1,bus2=BMT179614974.1,Phases=1,LineCode=tieSwitch1,Length=0.001,Units=km,switch=T !numEQ NUMEQ:80366  - Data de conexão anterior06/2011.
new line.CTR260847 bus1=BMT123286923.3,bus2=BMT136387241.3,Phases=1,LineCode=tieSwitch1,Length=0.001,Units=km,switch=T !numEQ NUMEQ:26632  - Data de conexão anterior06/2011.
new line.CTR260854 bus1=BMT123286986.3,bus2=BMT123287000.3,Phases=1,LineCode=tieSwitch1,Length=0.001,Units=km,switch=T !numEQ NUMEQ:39485  - Data de conexão anterior06/2011.
new line.CTR261022 bus1=BMT123270809.1,bus2=BMT163892100.1,Phases=1,LineCode=tieSwitch1,Length=0.001,Units=km,switch=T !numEQ NUMEQ:41951  - Data de conexão anterior06/2011.
new line.CTR261029 bus1=BMT123270823.1,bus2=BMT123271663.1,Phases=1,LineCode=tieSwitch1,Length=0.001,Units=km,switch=T !numEQ NUMEQ:40490  - Data de conexão anterior06/2011.
new line.CTR261050 bus1=BMT123280084.2,bus2=BMT176943148.2,Phases=1,LineCode=tieSwitch1,Length=0.001,Units=km,switch=T !numEQ NUMEQ:80356  - Data de conexão anterior06/2011.
new line.CTR261057 bus1=BMT123280035.2,bus2=BMT123280952.2,Phases=1,LineCode=tieSwitch1,Length=0.001,Units=km,switch=T !numEQ NUMEQ:80355  - Data de conexão anterior06/2011.
new line.CTR261064 bus1=BMT123280959.2,bus2=BMT123280973.2,Phases=1,LineCode=tieSwitch1,Length=0.001,Units=km,switch=T !numEQ NUMEQ:15703  - Data de conexão anterior06/2011.
new line.CTR261106 bus1=BMT123270501.3,bus2=BMT123276325.3,Phases=1,LineCode=tieSwitch1,Length=0.001,Units=km,switch=T !numEQ NUMEQ:28126  - Data de conexão anterior06/2011.
new line.CTR261113 bus1=BMT123276724.1,bus2=BMT123281134.1,Phases=1,LineCode=tieSwitch1,Length=0.001,Units=km,switch=T !numEQ NUMEQ:80349  - Data de conexão anterior06/2011.
new line.CTR261120 bus1=BMT123276815.1.2.3,bus2=BMT178211600.1.2.3,Phases=3,LineCode=tieSwitch,Length=0.001,Units=km,switch=T !numEQ NUMEQ:15330  - Data de conexão anterior06/2011.
new line.CTR261197 bus1=BMT123276752.2,bus2=BMT123279972.2,Phases=1,LineCode=tieSwitch1,Length=0.001,Units=km,switch=T !numEQ NUMEQ:80353  - Data de conexão anterior06/2011.
new line.CTR261204 bus1=BMT123279993.2,bus2=BMT159681183.2,Phases=1,LineCode=tieSwitch1,Length=0.001,Units=km,switch=T !numEQ NUMEQ:80354  - Data de conexão anterior06/2011.
new line.CTR261274 bus1=BMT123274533.2,bus2=BMT135146463.2,Phases=1,LineCode=tieSwitch1,Length=0.001,Units=km,switch=T !numEQ NUMEQ:40487  - Data de conexão anterior06/2011.
new line.CTR261281 bus1=BMT123275002.2,bus2=BMT123275016.2,Phases=1,LineCode=tieSwitch1,Length=0.001,Units=km,switch=T !numEQ NUMEQ:15592  - Data de conexão anterior06/2011.
new line.CTR261393 bus1=BMT123277277.1.2.3,bus2=BMT174650745.1.2.3,Phases=3,LineCode=tieSwitch,Length=0.001,Units=km,switch=T !numEQ NUMEQ:80406  - Data de conexão anterior06/2011.
new line.CTR261414 bus1=BMT123277242.1.2.3,bus2=BMT123278663.1.2.3,Phases=3,LineCode=tieSwitch,Length=0.001,Units=km,switch=T !numEQ NUMEQ:80402  - Data de conexão anterior06/2011.
new line.CTR261421 bus1=BMT123278670.2,bus2=BMT123278684.2,Phases=1,LineCode=tieSwitch1,Length=0.001,Units=km,switch=T !numEQ NUMEQ:80403  - Data de conexão anterior06/2011.
new line.CTR261428 bus1=BMT123277249.1.2.3,bus2=BMT123278628.1.2.3,Phases=3,LineCode=tieSwitch,Length=0.001,Units=km,switch=T !numEQ NUMEQ:80397  - Data de conexão anterior06/2011.
new line.CTR261435 bus1=BMT123277270.2,bus2=BMT123278614.2,Phases=1,LineCode=tieSwitch1,Length=0.001,Units=km,switch=T !numEQ NUMEQ:80404  - Data de conexão anterior06/2011.
new line.CTR261449 bus1=BMT123286832.2,bus2=BMT123286846.2,Phases=1,LineCode=tieSwitch1,Length=0.001,Units=km,switch=T !numEQ NUMEQ:146004  - Data de conexão anterior06/2011.
new line.CTR261526 bus1=BMT123283640.3,bus2=BMT151364963.3,Phases=1,LineCode=tieSwitch1,Length=0.001,Units=km,switch=T !numEQ NUMEQ:101376  - Data de conexão anterior06/2011.
new line.CTR321768 bus1=BMT123273938.3,bus2=BMT164507388.3,Phases=1,LineCode=tieSwitch1,Length=0.001,Units=km,switch=T !numEQ NUMEQ:220570  - Data de conexão anterior06/2011.
new line.CTR321789 bus1=BMT123273140.3,bus2=BMT151364267.3,Phases=1,LineCode=tieSwitch1,Length=0.001,Units=km,switch=T !numEQ NUMEQ:220571  - Data de conexão anterior06/2011.
new line.CTR321817 bus1=BMT123272958.3,bus2=BMT151364129.3,Phases=1,LineCode=tieSwitch1,Length=0.001,Units=km,switch=T !numEQ NUMEQ:220572  - Data de conexão anterior06/2011.
new line.CTR35335 bus1=BMT123288463.1,bus2=BMT123288477.1,Phases=1,LineCode=tieSwitch1,Length=0.001,Units=km,switch=T !numEQ NUMEQ:159344  - Data de conexão anterior06/2011.
new line.CTR35342 bus1=BMT123275534.2,bus2=BMT123275562.2,Phases=1,LineCode=tieSwitch1,Length=0.001,Units=km,switch=T !numEQ NUMEQ:159345  - Data de conexão anterior06/2011.
new line.CTR35370 bus1=BMT123286979.3,bus2=BMT123287028.3,Phases=1,LineCode=tieSwitch1,Length=0.001,Units=km,switch=T !numEQ NUMEQ:159346  - Data de conexão anterior06/2011.
new line.CTR35601 bus1=BMT123275905.1,bus2=BMT123276129.1,Phases=1,LineCode=tieSwitch1,Length=0.001,Units=km,switch=T !numEQ NUMEQ:159070  - Data de conexão anterior06/2011.
new line.CTR35615 bus1=BMT123271474.1,bus2=BMT123271523.1,Phases=1,LineCode=tieSwitch1,Length=0.001,Units=km,switch=T !numEQ NUMEQ:159072  - Data de conexão anterior06/2011.
new line.CTR38282 bus1=BMT123270116.1,bus2=BMT123289471.1,Phases=1,LineCode=tieSwitch1,Length=0.001,Units=km,switch=T !numEQ NUMEQ:158318  - Data de conexão anterior06/2011.
new line.CTR135771 bus1=BMT123276871.1.2.3,bus2=BMT123278712.1.2.3,Phases=3,LineCode=tieSwitch,Length=0.001,Units=km,switch=T !numEQ NUMEQ:80392  - Data de conexão anterior06/2011.
new line.CTR135778 bus1=BMT123272951.3,bus2=BMT164410212.3,Phases=1,LineCode=tieSwitch1,Length=0.001,Units=km,switch=T !numEQ NUMEQ:83695  - Data de conexão anterior06/2011.
new line.CTR135785 bus1=BMT123273217.3,bus2=BMT166899503.3,Phases=1,LineCode=tieSwitch1,Length=0.001,Units=km,switch=T !numEQ NUMEQ:83689  - Data de conexão anterior06/2011.
new line.CTR135799 bus1=BMT123274526.2,bus2=BMT123274967.2,Phases=1,LineCode=tieSwitch1,Length=0.001,Units=km,switch=T !numEQ NUMEQ:1842  - Data de conexão anterior06/2011.
new line.CTR135834 bus1=BMT123278369.3,bus2=BMT169550215.3,Phases=1,LineCode=tieSwitch1,Length=0.001,Units=km,switch=T !numEQ NUMEQ:80415  - Data de conexão anterior06/2011.
new line.CTR135869 bus1=BMT123277459.2,bus2=BMT177379856.2,Phases=1,LineCode=tieSwitch1,Length=0.001,Units=km,switch=T !numEQ NUMEQ:80421  - Data de conexão anterior06/2011.
new line.CTR135890 bus1=BMT123277739.2,bus2=BMT123277802.2,Phases=1,LineCode=tieSwitch1,Length=0.001,Units=km,switch=T !numEQ NUMEQ:80428  - Data de conexão anterior06/2011.
new line.CTR135897 bus1=BMT123277746.2,bus2=BMT123277774.2,Phases=1,LineCode=tieSwitch1,Length=0.001,Units=km,switch=T !numEQ NUMEQ:80429  - Data de conexão anterior06/2011.
new line.CTR135911 bus1=BMT123277655.2,bus2=BMT123277683.2,Phases=1,LineCode=tieSwitch1,Length=0.001,Units=km,switch=T !numEQ NUMEQ:307555  - Data de conexão anterior06/2011.
new line.CTR135925 bus1=BMT123278285.3,bus2=BMT161197504.3,Phases=1,LineCode=tieSwitch1,Length=0.001,Units=km,switch=T !numEQ NUMEQ:80410  - Data de conexão anterior06/2011.
new line.CTR135932 bus1=BMT123278306.3,bus2=BMT135279757.3,Phases=1,LineCode=tieSwitch1,Length=0.001,Units=km,switch=T !numEQ NUMEQ:80414  - Data de conexão anterior06/2011.
new line.CTR135939 bus1=BMT135121872.3,bus2=BMT135281801.3,Phases=1,LineCode=tieSwitch1,Length=0.001,Units=km,switch=T !numEQ NUMEQ:80434  - Data de conexão anterior06/2011.
new line.CTR135946 bus1=BMT123277921.3,bus2=BMT162308377.3,Phases=1,LineCode=tieSwitch1,Length=0.001,Units=km,switch=T !numEQ NUMEQ:80435  - Data de conexão anterior06/2011.
new line.CTR135953 bus1=BMT123277585.2,bus2=BMT123277718.2,Phases=1,LineCode=tieSwitch1,Length=0.001,Units=km,switch=T !numEQ NUMEQ:80427  - Data de conexão anterior06/2011.
new line.CTR135960 bus1=BMT123277529.2,bus2=BMT177287380.2,Phases=1,LineCode=tieSwitch1,Length=0.001,Units=km,switch=T !numEQ NUMEQ:80448  - Data de conexão anterior06/2011.
new line.CTR135974 bus1=BMT123277571.2,bus2=BMT123277830.2,Phases=1,LineCode=tieSwitch1,Length=0.001,Units=km,switch=T !numEQ NUMEQ:80451  - Data de conexão anterior06/2011.
new line.CTR136730 bus1=BMT123278495.3,bus2=BMT141476766.3,Phases=1,LineCode=tieSwitch1,Length=0.001,Units=km,switch=T !numEQ NUMEQ:80348  - Data de conexão anterior06/2011.
new line.CTR136751 bus1=BMT123280406.2,bus2=BMT170185684.2,Phases=1,LineCode=tieSwitch1,Length=0.001,Units=km,switch=T !numEQ NUMEQ:80364  - Data de conexão anterior06/2011.
new line.CTR136758 bus1=BMT123278516.3,bus2=BMT159268313.3,Phases=1,LineCode=tieSwitch1,Length=0.001,Units=km,switch=T !numEQ NUMEQ:80346  - Data de conexão anterior06/2011.
new line.CTR154377 bus1=BMT123282191.2,bus2=BMT151364666.2,Phases=1,LineCode=tieSwitch1,Length=0.001,Units=km,switch=T !numEQ NUMEQ:25679  - Data de conexão anterior06/2011.
new line.CTR217468 bus1=BMT5636728.1.2.3,bus2=BMT162131999.1.2.3,Phases=3,LineCode=tieSwitch,Length=0.001,Units=km,switch=T !numEQ NUMEQ:28175  - Data de conexão anterior06/2011.
new line.CTR217881 bus1=BMT123279146.1,bus2=BMT123279174.1,Phases=1,LineCode=tieSwitch1,Length=0.001,Units=km,switch=T !numEQ NUMEQ:28390  - Data de conexão anterior06/2011.
new line.CTR218203 bus1=BMT123284942.3,bus2=BMT123286125.3,Phases=1,LineCode=tieSwitch1,Length=0.001,Units=km,switch=T !numEQ NUMEQ:28065  - Data de conexão anterior06/2011.
new line.CTR218413 bus1=BMT123276710.1.2.3,bus2=BMT174698629.1.2.3,Phases=3,LineCode=tieSwitch,Length=0.001,Units=km,switch=T !numEQ NUMEQ:28087  - Data de conexão anterior06/2011.
new line.CTR240001 bus1=BMT123284613.2,bus2=BMT123284669.2,Phases=1,LineCode=tieSwitch1,Length=0.001,Units=km,switch=T !numEQ NUMEQ:15966  - Data de conexão anterior06/2011.
new line.CTR240015 bus1=BMT123284718.2,bus2=BMT163144415.2,Phases=1,LineCode=tieSwitch1,Length=0.001,Units=km,switch=T !numEQ NUMEQ:15967  - Data de conexão anterior06/2011.
new line.CTR240708 bus1=BMT123082992.3,bus2=BMT123083699.3,Phases=1,LineCode=tieSwitch1,Length=0.001,Units=km,switch=T !numEQ NUMEQ:15741  - Data de conexão anterior06/2011.
new line.CTR240715 bus1=BMT123083104.3,bus2=BMT123083125.3,Phases=1,LineCode=tieSwitch1,Length=0.001,Units=km,switch=T !numEQ NUMEQ:15742  - Data de conexão anterior06/2011.
new line.CTR241380 bus1=BMT123278740.1.2.3,bus2=BMT123278747.1.2.3,Phases=3,LineCode=tieSwitch,Length=0.001,Units=km,switch=T !numEQ NUMEQ:15555  - Data de conexão anterior06/2011.
new line.CTR241429 bus1=BMT123278642.1.2.3,bus2=BMT123278649.1.2.3,Phases=3,LineCode=tieSwitch,Length=0.001,Units=km,switch=T !numEQ NUMEQ:15569  - Data de conexão anterior06/2011.
new line.CTR264886 bus1=BMT123286363.3,bus2=BMT123286566.3,Phases=1,LineCode=tieSwitch1,Length=0.001,Units=km,switch=T !numEQ NUMEQ:178024  - Data de conexão anterior06/2011.
new line.CTR265145 bus1=BMT123289681.2,bus2=BMT123289835.2,Phases=1,LineCode=tieSwitch1,Length=0.001,Units=km,switch=T !numEQ NUMEQ:39442  - Data de conexão anterior06/2011.
new line.CTR265306 bus1=BMT123289128.1,bus2=BMT167170560.1,Phases=1,LineCode=tieSwitch1,Length=0.001,Units=km,switch=T !numEQ NUMEQ:41956  - Data de conexão anterior06/2011.
new line.CTR266314 bus1=BMT123286860.2,bus2=BMT5006014.2,Phases=1,LineCode=tieSwitch1,Length=0.001,Units=km,switch=T !numEQ NUMEQ:146005  - Data de conexão anterior06/2011.
new line.CTR267392 bus1=BMT123279671.1,bus2=BMT150502034.1,Phases=1,LineCode=tieSwitch1,Length=0.001,Units=km,switch=T !numEQ NUMEQ:25863  - Data de conexão anterior06/2011.
new line.CTR267602 bus1=BMT123082698.1.2.3,bus2=BMT179951684.1.2.3,Phases=3,LineCode=tieSwitch,Length=0.001,Units=km,switch=T !numEQ NUMEQ:26487  - Data de conexão anterior06/2011.
new line.CTR290023 bus1=BMT123288925.1,bus2=BMT168071047.1,Phases=1,LineCode=tieSwitch1,Length=0.001,Units=km,switch=T !numEQ NUMEQ:195660  - Data de conexão anterior06/2011.
new line.CTR324890 bus1=BMT123282688.2,bus2=BMT151364758.2,Phases=1,LineCode=tieSwitch1,Length=0.001,Units=km,switch=T !numEQ NUMEQ:221216  - Data de conexão anterior06/2011.
new line.CTR325674 bus1=BMT123276038.1,bus2=BMT149693806.1,Phases=1,LineCode=tieSwitch1,Length=0.001,Units=km,switch=T !numEQ NUMEQ:220930  - Data de conexão anterior06/2011.
new line.CTR32731 bus1=BMT123287847.1,bus2=BMT123287875.1,Phases=1,LineCode=tieSwitch1,Length=0.001,Units=km,switch=T !numEQ NUMEQ:175852  - Data de conexão anterior06/2011.
new line.CTR32738 bus1=BMT123286790.2,bus2=BMT123286804.2,Phases=1,LineCode=tieSwitch1,Length=0.001,Units=km,switch=T !numEQ NUMEQ:175853  - Data de conexão anterior06/2011.
new line.CTR36406 bus1=BMT123278138.3,bus2=BMT168023573.3,Phases=1,LineCode=tieSwitch1,Length=0.001,Units=km,switch=T !numEQ NUMEQ:158925  - Data de conexão anterior06/2011.
new line.CTR36413 bus1=BMT123278236.3,bus2=BMT135281759.3,Phases=1,LineCode=tieSwitch1,Length=0.001,Units=km,switch=T !numEQ NUMEQ:158926  - Data de conexão anterior06/2011.
new line.CTR36420 bus1=BMT123278152.3,bus2=BMT171138932.3,Phases=1,LineCode=tieSwitch1,Length=0.001,Units=km,switch=T !numEQ NUMEQ:158927  - Data de conexão anterior06/2011.
new line.CTR364986 bus1=BMT123083433.3,bus2=BMT123083524.3,Phases=1,LineCode=tieSwitch1,Length=0.001,Units=km,switch=T !numEQ NUMEQ:228089  - Data de conexão anterior06/2011.
new line.CTR421189 bus1=BMT135223414.1,bus2=BMT135223512.1,Phases=1,LineCode=tieSwitch1,Length=0.001,Units=km,switch=T !numEQ NUMEQ:221244  - Data de conexão anterior06/2011.
new line.CTR421245 bus1=BMT158166043.3,bus2=BMT158166396.3,Phases=1,LineCode=tieSwitch1,Length=0.001,Units=km,switch=T !numEQ NUMEQ:220932  - Data de conexão anterior06/2011.
new line.CTR421686 bus1=BMT135314624.1,bus2=BMT135318012.1,Phases=1,LineCode=tieSwitch1,Length=0.001,Units=km,switch=T !numEQ NUMEQ:218015  - Data de conexão anterior06/2011.
new line.CTR104383 bus1=BMT123284130.3,bus2=BMT159033162.3,Phases=1,LineCode=tieSwitch1,Length=0.001,Units=km,switch=T !numEQ NUMEQ:101378  - Data de conexão anterior06/2011.
new line.CTR104411 bus1=BMT123280910.2,bus2=BMT161127021.2,Phases=1,LineCode=tieSwitch1,Length=0.001,Units=km,switch=T !numEQ NUMEQ:101382  - Data de conexão anterior06/2011.
new line.CTR133720 bus1=BMT123272461.1,bus2=BMT150227027.1,Phases=1,LineCode=tieSwitch1,Length=0.001,Units=km,switch=T !numEQ NUMEQ:81090  - Data de conexão anterior06/2011.
new line.CTR133951 bus1=BMT123082677.1.2.3,bus2=BMT123082901.1.2.3,Phases=3,LineCode=tieSwitch,Length=0.001,Units=km,switch=T !numEQ NUMEQ:81147  - Data de conexão anterior06/2011.
new line.CTR134056 bus1=BMT123083629.3,bus2=BMT160512534.3,Phases=1,LineCode=tieSwitch1,Length=0.001,Units=km,switch=T !numEQ NUMEQ:81172  - Data de conexão anterior06/2011.
new line.CTR135477 bus1=BMT123280210.2,bus2=BMT155339400.2,Phases=1,LineCode=tieSwitch1,Length=0.001,Units=km,switch=T !numEQ NUMEQ:80365  - Data de conexão anterior06/2011.
new line.CTR135491 bus1=BMT123276899.1.2.3,bus2=BMT123277039.1.2.3,Phases=3,LineCode=tieSwitch,Length=0.001,Units=km,switch=T !numEQ NUMEQ:80441  - Data de conexão anterior06/2011.
new line.CTR135498 bus1=BMT123280819.2,bus2=BMT123280903.2,Phases=1,LineCode=tieSwitch1,Length=0.001,Units=km,switch=T !numEQ NUMEQ:155907  - Data de conexão anterior06/2011.
new line.CTR135519 bus1=BMT123280392.2,bus2=BMT123280539.2,Phases=1,LineCode=tieSwitch1,Length=0.001,Units=km,switch=T !numEQ NUMEQ:80362  - Data de conexão anterior06/2011.
new line.CTR135526 bus1=BMT123280567.2,bus2=BMT123280686.2,Phases=1,LineCode=tieSwitch1,Length=0.001,Units=km,switch=T !numEQ NUMEQ:80363  - Data de conexão anterior06/2011.
new line.CTR135533 bus1=BMT123279342.1,bus2=BMT150502080.1,Phases=1,LineCode=tieSwitch1,Length=0.001,Units=km,switch=T !numEQ NUMEQ:80368  - Data de conexão anterior06/2011.
new line.CTR135554 bus1=BMT123279370.1,bus2=BMT150502075.1,Phases=1,LineCode=tieSwitch1,Length=0.001,Units=km,switch=T !numEQ NUMEQ:80371  - Data de conexão anterior06/2011.
new line.CTR135561 bus1=BMT123279377.1,bus2=BMT171190853.1,Phases=1,LineCode=tieSwitch1,Length=0.001,Units=km,switch=T !numEQ NUMEQ:80372  - Data de conexão anterior06/2011.
new line.CTR135575 bus1=BMT123276836.1.2.3,bus2=BMT178594432.1.2.3,Phases=3,LineCode=tieSwitch,Length=0.001,Units=km,switch=T !numEQ NUMEQ:80376  - Data de conexão anterior06/2011.
new line.CTR135596 bus1=BMT123276892.1.2.3,bus2=BMT135152749.1.2.3,Phases=3,LineCode=tieSwitch,Length=0.001,Units=km,switch=T !numEQ NUMEQ:156696  - Data de conexão anterior06/2011.
new line.CTR135645 bus1=BMT123280742.2,bus2=BMT123280770.2,Phases=1,LineCode=tieSwitch1,Length=0.001,Units=km,switch=T !numEQ NUMEQ:307556  - Data de conexão anterior06/2011.
new line.CTR135652 bus1=BMT123278866.2,bus2=BMT123279020.2,Phases=1,LineCode=tieSwitch1,Length=0.001,Units=km,switch=T !numEQ NUMEQ:80380  - Data de conexão anterior06/2011.
new line.CTR135659 bus1=BMT123278901.2,bus2=BMT170505608.2,Phases=1,LineCode=tieSwitch1,Length=0.001,Units=km,switch=T !numEQ NUMEQ:80381  - Data de conexão anterior06/2011.
new line.CTR135666 bus1=BMT123278908.2,bus2=BMT123278978.2,Phases=1,LineCode=tieSwitch1,Length=0.001,Units=km,switch=T !numEQ NUMEQ:80382  - Data de conexão anterior06/2011.
new line.CTR135673 bus1=BMT123279048.1,bus2=BMT173226615.1,Phases=1,LineCode=tieSwitch1,Length=0.001,Units=km,switch=T !numEQ NUMEQ:80383  - Data de conexão anterior06/2011.
new line.CTR1357 bus1=BMT123274652.2,bus2=BMT123274785.2,Phases=1,LineCode=tieSwitch1,Length=0.001,Units=km,switch=T !numEQ NUMEQ:38885  - Data de conexão anterior06/2011.
new line.CTR135708 bus1=BMT123276843.3,bus2=BMT123278803.3,Phases=1,LineCode=tieSwitch1,Length=0.001,Units=km,switch=T !numEQ NUMEQ:80388  - Data de conexão anterior06/2011.
new line.CTR135729 bus1=BMT123278733.1.2.3,bus2=BMT123278761.1.2.3,Phases=3,LineCode=tieSwitch,Length=0.001,Units=km,switch=T !numEQ NUMEQ:80393  - Data de conexão anterior06/2011.
new line.CTR135736 bus1=BMT123277235.1.2.3,bus2=BMT123278698.1.2.3,Phases=3,LineCode=tieSwitch,Length=0.001,Units=km,switch=T !numEQ NUMEQ:80395  - Data de conexão anterior06/2011.
new line.CTR135764 bus1=BMT123276864.1.2.3,bus2=BMT123278789.1.2.3,Phases=3,LineCode=tieSwitch,Length=0.001,Units=km,switch=T !numEQ NUMEQ:80390  - Data de conexão anterior06/2011.
new line.CTR1441 bus1=BMT123285075.3,bus2=BMT123285418.3,Phases=1,LineCode=tieSwitch1,Length=0.001,Units=km,switch=T !numEQ NUMEQ:146695  - Data de conexão anterior06/2011.
new line.CTR16106 bus1=BMT123289688.2,bus2=BMT123289807.2,Phases=1,LineCode=tieSwitch1,Length=0.001,Units=km,switch=T !numEQ NUMEQ:39443  - Data de conexão anterior06/2011.
new line.CTR16127 bus1=BMT123289709.2,bus2=BMT123289786.2,Phases=1,LineCode=tieSwitch1,Length=0.001,Units=km,switch=T !numEQ NUMEQ:39444  - Data de conexão anterior06/2011.
new line.CTR180956 bus1=BMT123274302.2,bus2=BMT157513743.2,Phases=1,LineCode=tieSwitch1,Length=0.001,Units=km,switch=T !numEQ NUMEQ:40499  - Data de conexão anterior06/2011.
new line.CTR180977 bus1=BMT123272132.2,bus2=BMT123272251.2,Phases=1,LineCode=tieSwitch1,Length=0.001,Units=km,switch=T !numEQ NUMEQ:40498  - Data de conexão anterior06/2011.
new line.CTR180984 bus1=BMT123270858.1,bus2=BMT123270963.1,Phases=1,LineCode=tieSwitch1,Length=0.001,Units=km,switch=T !numEQ NUMEQ:40500  - Data de conexão anterior06/2011.
new line.CTR1966 bus1=BMT123288680.1,bus2=BMT166643617.1,Phases=1,LineCode=tieSwitch1,Length=0.001,Units=km,switch=T !numEQ NUMEQ:181814  - Data de conexão anterior06/2011.
new line.CTR1987 bus1=BMT123288827.1,bus2=BMT149705728.1,Phases=1,LineCode=tieSwitch1,Length=0.001,Units=km,switch=T !numEQ NUMEQ:41953  - Data de conexão anterior06/2011.
new line.CTR221598 bus1=BMT173751059.2,bus2=BMT121610920.2,Phases=1,LineCode=tieSwitch1,Length=0.001,Units=km,switch=T !numEQ NUMEQ:27305  - Data de conexão anterior06/2011.
open line.CTR221598 term=1
new line.CTR267791 bus1=BMT123273966.3,bus2=BMT151364112.3,Phases=1,LineCode=tieSwitch1,Length=0.001,Units=km,switch=T !numEQ NUMEQ:83697  - Data de conexão anterior06/2011.
new line.CTR269534 bus1=BMT123270459.1,bus2=BMT123276584.1,Phases=1,LineCode=tieSwitch1,Length=0.001,Units=km,switch=T !numEQ NUMEQ:159304  - Data de conexão anterior06/2011.
new line.CTR269877 bus1=BMT123280385.2,bus2=BMT123280707.2,Phases=1,LineCode=tieSwitch1,Length=0.001,Units=km,switch=T !numEQ NUMEQ:80341  - Data de conexão anterior06/2011.
new line.CTR270073 bus1=BMT167789440.3,bus2=BMT179916743.3,Phases=1,LineCode=tieSwitch1,Length=0.001,Units=km,switch=T !numEQ NUMEQ:158667  - Data de conexão anterior06/2011.
new line.CTR270409 bus1=BMT123270830.1,bus2=BMT123271642.1,Phases=1,LineCode=tieSwitch1,Length=0.001,Units=km,switch=T !numEQ NUMEQ:157000  - Data de conexão anterior06/2011.
new line.CTR270444 bus1=BMT123283850.3,bus2=BMT151364970.3,Phases=1,LineCode=tieSwitch1,Length=0.001,Units=km,switch=T !numEQ NUMEQ:195446  - Data de conexão anterior06/2011.
new line.CTR29840 bus1=BMT123287252.3,bus2=BMT123287448.3,Phases=1,LineCode=tieSwitch1,Length=0.001,Units=km,switch=T !numEQ NUMEQ:177445  - Data de conexão anterior06/2011.
new line.CTR33620 bus1=BMT123285047.3,bus2=BMT167750995.3,Phases=1,LineCode=tieSwitch1,Length=0.001,Units=km,switch=T !numEQ NUMEQ:175737  - Data de conexão anterior06/2011.
new line.CTR44736 bus1=BMT123272930.3,bus2=BMT169975043.3,Phases=1,LineCode=tieSwitch1,Length=0.001,Units=km,switch=T !numEQ NUMEQ:156049  - Data de conexão anterior06/2011.
new line.CTR44827 bus1=BMT123286097.3,bus2=BMT123286111.3,Phases=1,LineCode=tieSwitch1,Length=0.001,Units=km,switch=T !numEQ NUMEQ:156730  - Data de conexão anterior06/2011.
new line.CTR44848 bus1=BMT123283381.1,bus2=BMT135483849.1,Phases=1,LineCode=tieSwitch1,Length=0.001,Units=km,switch=T !numEQ NUMEQ:156734  - Data de conexão anterior06/2011.
new line.CTR49237 bus1=BMT123276885.1,bus2=BMT123277207.1,Phases=1,LineCode=tieSwitch1,Length=0.001,Units=km,switch=T !numEQ NUMEQ:181777  - Data de conexão anterior06/2011.
new line.CTR49363 bus1=BMT123282835.2,bus2=BMT151364744.2,Phases=1,LineCode=tieSwitch1,Length=0.001,Units=km,switch=T !numEQ NUMEQ:146771  - Data de conexão anterior06/2011.
new line.CTR49496 bus1=BMT123288316.1,bus2=BMT168036598.1,Phases=1,LineCode=tieSwitch1,Length=0.001,Units=km,switch=T !numEQ NUMEQ:158799  - Data de conexão anterior06/2011.
new line.CTR276716 bus1=BMT178808349.3,bus2=BMT123285824.3,Phases=1,LineCode=tieSwitch1,Length=0.001,Units=km,switch=T !numEQ NUMEQ:26575  - Data de conexão anterior06/2011.
new line.CTR276772 bus1=BMT123285565.3,bus2=BMT160140493.3,Phases=1,LineCode=tieSwitch1,Length=0.001,Units=km,switch=T !numEQ NUMEQ:25866  - Data de conexão anterior06/2011.
new line.CTR276779 bus1=BMT123285635.3,bus2=BMT123285880.3,Phases=1,LineCode=tieSwitch1,Length=0.001,Units=km,switch=T !numEQ NUMEQ:26574  - Data de conexão anterior06/2011.
new line.CTR276800 bus1=BMT123270466.3,bus2=BMT166206753.3,Phases=1,LineCode=tieSwitch1,Length=0.001,Units=km,switch=T !numEQ NUMEQ:40475  - Data de conexão anterior06/2011.
new line.CTR276807 bus1=BMT158501721.1.2.3,bus2=BMT135351696.1.2.3,Phases=3,LineCode=tieSwitch,Length=0.001,Units=km,switch=T !numEQ NUMEQ:120821  - Data de conexão anterior06/2011.
new line.CTR299452 bus1=BMT123270109.3,bus2=BMT123289520.3,Phases=1,LineCode=tieSwitch1,Length=0.001,Units=km,switch=T !numEQ NUMEQ:216589  - Data de conexão anterior06/2011.
new line.CTR300523 bus1=BMT151328229.1,bus2=BMT161282130.1,Phases=1,LineCode=tieSwitch1,Length=0.001,Units=km,switch=T !numEQ NUMEQ:192465  - Data de conexão anterior06/2011.
new line.CTR302035 bus1=BMT123289184.1,bus2=BMT123289268.1,Phases=1,LineCode=tieSwitch1,Length=0.001,Units=km,switch=T !numEQ NUMEQ:206998  - Data de conexão anterior06/2011.
new line.CTR33886 bus1=BMT123272650.1,bus2=BMT169954608.1,Phases=1,LineCode=tieSwitch1,Length=0.001,Units=km,switch=T !numEQ NUMEQ:175797  - Data de conexão anterior06/2011.
new line.CTR38107 bus1=BMT123281743.1,bus2=BMT154709133.1,Phases=1,LineCode=tieSwitch1,Length=0.001,Units=km,switch=T !numEQ NUMEQ:158626  - Data de conexão anterior06/2011.
new line.CTR41712 bus1=BMT123285187.3,bus2=BMT123285292.3,Phases=1,LineCode=tieSwitch1,Length=0.001,Units=km,switch=T !numEQ NUMEQ:157357  - Data de conexão anterior06/2011.
new line.CTR41726 bus1=BMT123285761.3,bus2=BMT123285775.3,Phases=1,LineCode=tieSwitch1,Length=0.001,Units=km,switch=T !numEQ NUMEQ:157359  - Data de conexão anterior06/2011.
new line.CTR41733 bus1=BMT123285124.3,bus2=BMT123285138.3,Phases=1,LineCode=tieSwitch1,Length=0.001,Units=km,switch=T !numEQ NUMEQ:157360  - Data de conexão anterior06/2011.
new line.CTR41740 bus1=BMT123282730.2,bus2=BMT151364747.2,Phases=1,LineCode=tieSwitch1,Length=0.001,Units=km,switch=T !numEQ NUMEQ:157361  - Data de conexão anterior06/2011.
new line.CTR41950 bus1=BMT123282765.2,bus2=BMT169716546.2,Phases=1,LineCode=tieSwitch1,Length=0.001,Units=km,switch=T !numEQ NUMEQ:157413  - Data de conexão anterior06/2011.
new line.CTR41957 bus1=BMT123282884.2,bus2=BMT151364742.2,Phases=1,LineCode=tieSwitch1,Length=0.001,Units=km,switch=T !numEQ NUMEQ:157414  - Data de conexão anterior06/2011.
new line.CTR41964 bus1=BMT123282891.2,bus2=BMT151364739.2,Phases=1,LineCode=tieSwitch1,Length=0.001,Units=km,switch=T !numEQ NUMEQ:157415  - Data de conexão anterior06/2011.
new line.CTR419978 bus1=BMT135011209.1,bus2=BMT135011223.1,Phases=1,LineCode=tieSwitch1,Length=0.001,Units=km,switch=T !numEQ NUMEQ:121161  - Data de conexão anterior06/2011.
new line.CTR419985 bus1=BMT135012266.3,bus2=BMT135012280.3,Phases=1,LineCode=tieSwitch1,Length=0.001,Units=km,switch=T !numEQ NUMEQ:123026  - Data de conexão anterior06/2011.
new line.CTR419992 bus1=BMT135012763.3,bus2=BMT135012770.3,Phases=1,LineCode=tieSwitch1,Length=0.001,Units=km,switch=T !numEQ NUMEQ:123086  - Data de conexão anterior06/2011.
new line.CTR419999 bus1=BMT135014051.2,bus2=BMT135014219.2,Phases=1,LineCode=tieSwitch1,Length=0.001,Units=km,switch=T !numEQ NUMEQ:123589  - Data de conexão anterior06/2011.
new line.CTR420006 bus1=BMT135014226.2,bus2=BMT135014240.2,Phases=1,LineCode=tieSwitch1,Length=0.001,Units=km,switch=T !numEQ NUMEQ:123635  - Data de conexão anterior06/2011.
new line.CTR420027 bus1=BMT135017712.3,bus2=BMT135018412.3,Phases=1,LineCode=tieSwitch1,Length=0.001,Units=km,switch=T !numEQ NUMEQ:129800  - Data de conexão anterior06/2011.
new line.CTR420034 bus1=BMT135018426.3,bus2=BMT135018447.3,Phases=1,LineCode=tieSwitch1,Length=0.001,Units=km,switch=T !numEQ NUMEQ:129801  - Data de conexão anterior06/2011.
new line.CTR420041 bus1=BMT135018538.1,bus2=BMT135018573.1,Phases=1,LineCode=tieSwitch1,Length=0.001,Units=km,switch=T !numEQ NUMEQ:129803  - Data de conexão anterior06/2011.
new line.CTR420048 bus1=BMT135019343.2,bus2=BMT151364696.2,Phases=1,LineCode=tieSwitch1,Length=0.001,Units=km,switch=T !numEQ NUMEQ:129813  - Data de conexão anterior06/2011.
new line.CTR420062 bus1=BMT135020057.1.2.3,bus2=BMT135020071.1.2.3,Phases=3,LineCode=tieSwitch,Length=0.001,Units=km,switch=T !numEQ NUMEQ:129818  - Data de conexão anterior06/2011.
new line.CTR420300 bus1=BMT135071689.2,bus2=BMT135071696.2,Phases=1,LineCode=tieSwitch1,Length=0.001,Units=km,switch=T !numEQ NUMEQ:217777  - Data de conexão anterior06/2011.
new line.CTR420454 bus1=BMT135087572.2,bus2=BMT135087698.2,Phases=1,LineCode=tieSwitch1,Length=0.001,Units=km,switch=T !numEQ NUMEQ:217778  - Data de conexão anterior06/2011.
new line.CTR420517 bus1=BMT135106710.2,bus2=BMT159038642.2,Phases=1,LineCode=tieSwitch1,Length=0.001,Units=km,switch=T !numEQ NUMEQ:217779  - Data de conexão anterior06/2011.
new line.CTR420524 bus1=BMT135106920.3,bus2=BMT158121319.3,Phases=1,LineCode=tieSwitch1,Length=0.001,Units=km,switch=T !numEQ NUMEQ:217780  - Data de conexão anterior06/2011.
new line.CTR420664 bus1=BMT135127339.3,bus2=BMT159951095.3,Phases=1,LineCode=tieSwitch1,Length=0.001,Units=km,switch=T !numEQ NUMEQ:145402  - Data de conexão anterior06/2011.
new line.CTR420692 bus1=BMT135145959.2,bus2=BMT135145973.2,Phases=1,LineCode=tieSwitch1,Length=0.001,Units=km,switch=T !numEQ NUMEQ:146257  - Data de conexão anterior06/2011.
new line.CTR420720 bus1=BMT135146477.2,bus2=BMT135146484.2,Phases=1,LineCode=tieSwitch1,Length=0.001,Units=km,switch=T !numEQ NUMEQ:145403  - Data de conexão anterior06/2011.
new line.CTR420727 bus1=BMT135150607.1,bus2=BMT151860345.1,Phases=1,LineCode=tieSwitch1,Length=0.001,Units=km,switch=T !numEQ NUMEQ:155911  - Data de conexão anterior06/2011.
new line.CTR420734 bus1=BMT135152756.2,bus2=BMT135152770.2,Phases=1,LineCode=tieSwitch1,Length=0.001,Units=km,switch=T !numEQ NUMEQ:157406  - Data de conexão anterior06/2011.
new line.CTR420741 bus1=BMT135153582.1.2.3,bus2=BMT135153603.1.2.3,Phases=3,LineCode=tieSwitch,Length=0.001,Units=km,switch=T !numEQ NUMEQ:158103  - Data de conexão anterior06/2011.
new line.CTR420748 bus1=BMT135154205.1,bus2=BMT135154275.1,Phases=1,LineCode=tieSwitch1,Length=0.001,Units=km,switch=T !numEQ NUMEQ:158274  - Data de conexão anterior06/2011.
new line.CTR45884 bus1=BMT123291095.3,bus2=BMT149693565.3,Phases=1,LineCode=tieSwitch1,Length=0.001,Units=km,switch=T !numEQ NUMEQ:156345  - Data de conexão anterior06/2011.
new line.CTR50175 bus1=BMT123273539.3,bus2=BMT166907866.3,Phases=1,LineCode=tieSwitch1,Length=0.001,Units=km,switch=T !numEQ NUMEQ:146644  - Data de conexão anterior06/2011.
new line.CTR50182 bus1=BMT123274890.2,bus2=BMT123274946.2,Phases=1,LineCode=tieSwitch1,Length=0.001,Units=km,switch=T !numEQ NUMEQ:146645  - Data de conexão anterior06/2011.
new line.CTR50224 bus1=BMT123275359.2,bus2=BMT123275443.2,Phases=1,LineCode=tieSwitch1,Length=0.001,Units=km,switch=T !numEQ NUMEQ:146660  - Data de conexão anterior06/2011.
new line.CTR55271 bus1=BMT123284900.3,bus2=BMT176401286.3,Phases=1,LineCode=tieSwitch1,Length=0.001,Units=km,switch=T !numEQ NUMEQ:145430  - Data de conexão anterior06/2011.
new line.CTR60969 bus1=BMT123291060.3,bus2=BMT149693559.3,Phases=1,LineCode=tieSwitch1,Length=0.001,Units=km,switch=T !numEQ NUMEQ:129526  - Data de conexão anterior06/2011.
new line.CTR61207 bus1=BMT123271369.1,bus2=BMT123271439.1,Phases=1,LineCode=tieSwitch1,Length=0.001,Units=km,switch=T !numEQ NUMEQ:129574  - Data de conexão anterior06/2011.
new line.CTR66205 bus1=BMT123272090.1.2.3,bus2=BMT179073049.1.2.3,Phases=3,LineCode=tieSwitch,Length=0.001,Units=km,switch=T !numEQ NUMEQ:123804  - Data de conexão anterior06/2011.
new line.CTR66240 bus1=BMT123083027.1,bus2=BMT123083678.1,Phases=1,LineCode=tieSwitch1,Length=0.001,Units=km,switch=T !numEQ NUMEQ:123810  - Data de conexão anterior06/2011.
new line.CTR66247 bus1=BMT123276367.3,bus2=BMT168638056.3,Phases=1,LineCode=tieSwitch1,Length=0.001,Units=km,switch=T !numEQ NUMEQ:123811  - Data de conexão anterior06/2011.
new line.CTR126825 bus1=BMT123273028.3,bus2=BMT151364162.3,Phases=1,LineCode=tieSwitch1,Length=0.001,Units=km,switch=T !numEQ NUMEQ:83685  - Data de conexão anterior06/2011.
new line.CTR126839 bus1=BMT123273063.3,bus2=BMT151364170.3,Phases=1,LineCode=tieSwitch1,Length=0.001,Units=km,switch=T !numEQ NUMEQ:83687  - Data de conexão anterior06/2011.
new line.CTR126853 bus1=BMT123273952.3,bus2=BMT151364120.3,Phases=1,LineCode=tieSwitch1,Length=0.001,Units=km,switch=T !numEQ NUMEQ:83696  - Data de conexão anterior06/2011.
new line.CTR126860 bus1=BMT123272629.1,bus2=BMT156023655.1,Phases=1,LineCode=tieSwitch1,Length=0.001,Units=km,switch=T !numEQ NUMEQ:83699  - Data de conexão anterior06/2011.
new line.CTR126867 bus1=BMT123283934.3,bus2=BMT151364979.3,Phases=1,LineCode=tieSwitch1,Length=0.001,Units=km,switch=T !numEQ NUMEQ:83704  - Data de conexão anterior06/2011.
new line.CTR126874 bus1=BMT123272174.1,bus2=BMT148130189.1,Phases=1,LineCode=tieSwitch1,Length=0.001,Units=km,switch=T !numEQ NUMEQ:158887  - Data de conexão anterior06/2011.
new line.CTR126881 bus1=BMT123272916.3,bus2=BMT151364103.3,Phases=1,LineCode=tieSwitch1,Length=0.001,Units=km,switch=T !numEQ NUMEQ:83698  - Data de conexão anterior06/2011.
new line.CTR126888 bus1=BMT123273231.3,bus2=BMT151364253.3,Phases=1,LineCode=tieSwitch1,Length=0.001,Units=km,switch=T !numEQ NUMEQ:83690  - Data de conexão anterior06/2011.
new line.CTR126895 bus1=BMT123283885.3,bus2=BMT161170692.3,Phases=1,LineCode=tieSwitch1,Length=0.001,Units=km,switch=T !numEQ NUMEQ:83705  - Data de conexão anterior06/2011.
new line.CTR127014 bus1=BMT123275373.2,bus2=BMT135145938.2,Phases=1,LineCode=tieSwitch1,Length=0.001,Units=km,switch=T !numEQ NUMEQ:83713  - Data de conexão anterior06/2011.
new line.CTR127021 bus1=BMT123282163.2,bus2=BMT123283332.2,Phases=1,LineCode=tieSwitch1,Length=0.001,Units=km,switch=T !numEQ NUMEQ:83712  - Data de conexão anterior06/2011.
new line.CTR127035 bus1=BMT123282408.2,bus2=BMT151364776.2,Phases=1,LineCode=tieSwitch1,Length=0.001,Units=km,switch=T !numEQ NUMEQ:83708  - Data de conexão anterior06/2011.
new line.CTR127042 bus1=BMT123282541.2,bus2=BMT169532501.2,Phases=1,LineCode=tieSwitch1,Length=0.001,Units=km,switch=T !numEQ NUMEQ:83709  - Data de conexão anterior06/2011.
new line.CTR157695 bus1=BMT123283661.3,bus2=BMT151364969.3,Phases=1,LineCode=tieSwitch1,Length=0.001,Units=km,switch=T !numEQ NUMEQ:26547  - Data de conexão anterior06/2011.
new line.CTR173004 bus1=BMT123287196.3,bus2=BMT170244027.3,Phases=1,LineCode=tieSwitch1,Length=0.001,Units=km,switch=T !numEQ NUMEQ:41955  - Data de conexão anterior06/2011.
new line.CTR173060 bus1=BMT123272293.2,bus2=BMT123272300.2,Phases=1,LineCode=tieSwitch1,Length=0.001,Units=km,switch=T !numEQ NUMEQ:41952  - Data de conexão anterior06/2011.
new line.CTR173102 bus1=BMT123289044.1,bus2=BMT129112533.1,Phases=1,LineCode=tieSwitch1,Length=0.001,Units=km,switch=T !numEQ NUMEQ:41959  - Data de conexão anterior06/2011.
new line.CTR173249 bus1=BMT123289387.3,bus2=BMT158527770.3,Phases=1,LineCode=tieSwitch1,Length=0.001,Units=km,switch=T !numEQ NUMEQ:41958  - Data de conexão anterior06/2011.
new line.CTR173382 bus1=BMT179933880.1.2.3,bus2=BMT123082173.1.2.3,Phases=3,LineCode=tieSwitch,Length=0.001,Units=km,switch=T !numEQ NUMEQ:26481  - Data de conexão anterior06/2011.
new line.CTR188509 bus1=BMT178193200.1.2.3,bus2=BMT149561830.1.2.3,Phases=3,LineCode=tieSwitch,Length=0.001,Units=km,switch=T !numEQ NUMEQ:295732  - Data de conexão anterior06/2011.
new line.CTR188516 bus1=BMT123270144.1,bus2=BMT123289345.1,Phases=1,LineCode=tieSwitch1,Length=0.001,Units=km,switch=T !numEQ NUMEQ:39454  - Data de conexão anterior06/2011.
new line.CTR188530 bus1=BMT123289037.1,bus2=BMT123289317.1,Phases=1,LineCode=tieSwitch1,Length=0.001,Units=km,switch=T !numEQ NUMEQ:39456  - Data de conexão anterior06/2011.
new line.CTR188551 bus1=BMT123289072.1,bus2=BMT129048301.1,Phases=1,LineCode=tieSwitch1,Length=0.001,Units=km,switch=T !numEQ NUMEQ:39459  - Data de conexão anterior06/2011.
new line.CTR188558 bus1=BMT123287742.1,bus2=BMT123288561.1,Phases=1,LineCode=tieSwitch1,Length=0.001,Units=km,switch=T !numEQ NUMEQ:39467  - Data de conexão anterior06/2011.
new line.CTR188565 bus1=BMT123287721.1,bus2=BMT167248820.1,Phases=1,LineCode=tieSwitch1,Length=0.001,Units=km,switch=T !numEQ NUMEQ:39466  - Data de conexão anterior06/2011.
new line.CTR188586 bus1=BMT123270172.2,bus2=BMT123288988.2,Phases=1,LineCode=tieSwitch1,Length=0.001,Units=km,switch=T !numEQ NUMEQ:39457  - Data de conexão anterior06/2011.
new line.CTR188593 bus1=BMT123288638.1,bus2=BMT123288764.1,Phases=1,LineCode=tieSwitch1,Length=0.001,Units=km,switch=T !numEQ NUMEQ:39461  - Data de conexão anterior06/2011.
new line.CTR188600 bus1=BMT123288785.1,bus2=BMT123288799.1,Phases=1,LineCode=tieSwitch1,Length=0.001,Units=km,switch=T !numEQ NUMEQ:39462  - Data de conexão anterior06/2011.
new line.CTR188607 bus1=BMT123288806.1,bus2=BMT123288820.1,Phases=1,LineCode=tieSwitch1,Length=0.001,Units=km,switch=T !numEQ NUMEQ:39463  - Data de conexão anterior06/2011.
new line.CTR231741 bus1=BMT123272482.1,bus2=BMT150226966.1,Phases=1,LineCode=tieSwitch1,Length=0.001,Units=km,switch=T !numEQ NUMEQ:25089  - Data de conexão anterior06/2011.
new line.CTR231790 bus1=BMT123285495.3,bus2=BMT123285516.3,Phases=1,LineCode=tieSwitch1,Length=0.001,Units=km,switch=T !numEQ NUMEQ:25099  - Data de conexão anterior06/2011.
new line.CTR278256 bus1=BMT123282058.2,bus2=BMT123283493.2,Phases=1,LineCode=tieSwitch1,Length=0.001,Units=km,switch=T !numEQ NUMEQ:83707  - Data de conexão anterior06/2011.
new line.CTR279523 bus1=BMT123285089.3,bus2=BMT123285320.3,Phases=1,LineCode=tieSwitch1,Length=0.001,Units=km,switch=T !numEQ NUMEQ:158776  - Data de conexão anterior06/2011.
new line.CTR279530 bus1=BMT123285341.3,bus2=BMT123285355.3,Phases=1,LineCode=tieSwitch1,Length=0.001,Units=km,switch=T !numEQ NUMEQ:158777  - Data de conexão anterior06/2011.
new line.CTR279838 bus1=BMT123279643.1,bus2=BMT150502051.1,Phases=1,LineCode=tieSwitch1,Length=0.001,Units=km,switch=T !numEQ NUMEQ:177968  - Data de conexão anterior06/2011.
new line.CTR306837 bus1=BMT123286783.2,bus2=BMT168055601.2,Phases=1,LineCode=tieSwitch1,Length=0.001,Units=km,switch=T !numEQ NUMEQ:213698  - Data de conexão anterior06/2011.
new line.CTR307012 bus1=BMT123276801.1,bus2=BMT123279244.1,Phases=1,LineCode=tieSwitch1,Length=0.001,Units=km,switch=T !numEQ NUMEQ:213374  - Data de conexão anterior06/2011.
new line.CTR307810 bus1=BMT123280161.2,bus2=BMT153361014.2,Phases=1,LineCode=tieSwitch1,Length=0.001,Units=km,switch=T !numEQ NUMEQ:80345  - Data de conexão anterior06/2011.
new line.CTR307859 bus1=BMT123281778.2,bus2=BMT123284396.2,Phases=1,LineCode=tieSwitch1,Length=0.001,Units=km,switch=T !numEQ NUMEQ:213375  - Data de conexão anterior06/2011.
new line.CTR307999 bus1=BMT123287616.3,bus2=BMT151357522.3,Phases=1,LineCode=tieSwitch1,Length=0.001,Units=km,switch=T !numEQ NUMEQ:215510  - Data de conexão anterior06/2011.
new line.CTR35090 bus1=BMT123278208.3,bus2=BMT135281773.3,Phases=1,LineCode=tieSwitch1,Length=0.001,Units=km,switch=T !numEQ NUMEQ:159247  - Data de conexão anterior06/2011.
new line.CTR398404 bus1=BMT129112540.1,bus2=BMT129112757.1,Phases=1,LineCode=tieSwitch1,Length=0.001,Units=km,switch=T !numEQ NUMEQ:301096  - Data de conexão anterior06/2011.
new line.CTR443120 bus1=BMT141476773.3,bus2=BMT141476787.3,Phases=1,LineCode=tieSwitch1,Length=0.001,Units=km,switch=T !numEQ NUMEQ:303253  - Data de conexão anterior06/2011.
new line.CTR68361 bus1=BMT123082908.1.2.3,bus2=BMT123082915.1.2.3,Phases=3,LineCode=tieSwitch,Length=0.001,Units=km,switch=T !numEQ NUMEQ:123446  - Data de conexão anterior06/2011.
new line.CTR84111 bus1=BMT123270634.3,bus2=BMT123276143.3,Phases=1,LineCode=tieSwitch1,Length=0.001,Units=km,switch=T !numEQ NUMEQ:114202  - Data de conexão anterior06/2011.
new line.CTR84118 bus1=BMT123276206.3,bus2=BMT123276304.3,Phases=1,LineCode=tieSwitch1,Length=0.001,Units=km,switch=T !numEQ NUMEQ:114203  - Data de conexão anterior06/2011.
new line.CTR84125 bus1=BMT123276213.3,bus2=BMT123276248.3,Phases=1,LineCode=tieSwitch1,Length=0.001,Units=km,switch=T !numEQ NUMEQ:114204  - Data de conexão anterior06/2011.
new line.CTR862662 bus1=BMT153500684.1,bus2=BMT163847058.1,Phases=1,LineCode=tieSwitch1,Length=0.001,Units=km,switch=T !numEQ NUMEQ:234742  - Data de conexão anterior06/2011.
new line.CTR142078 bus1=BMT123281232.1.2.3,bus2=BMT177471941.1.2.3,Phases=3,LineCode=tieSwitch,Length=0.001,Units=km,switch=T !numEQ NUMEQ:40981  - Data de conexão anterior06/2011.
new line.CTR174299 bus1=BMT123270655.1,bus2=BMT175302820.1,Phases=1,LineCode=tieSwitch1,Length=0.001,Units=km,switch=T !numEQ NUMEQ:339801  - Data de conexão anterior06/2011.
new line.CTR174306 bus1=BMT123275849.1,bus2=BMT123275884.1,Phases=1,LineCode=tieSwitch1,Length=0.001,Units=km,switch=T !numEQ NUMEQ:111586  - Data de conexão anterior06/2011.
new line.CTR189888 bus1=BMT123289751.2,bus2=BMT123289765.2,Phases=1,LineCode=tieSwitch1,Length=0.001,Units=km,switch=T !numEQ NUMEQ:158014  - Data de conexão anterior06/2011.
new line.CTR190763 bus1=BMT123274582.2,bus2=BMT123274589.2,Phases=1,LineCode=tieSwitch1,Length=0.001,Units=km,switch=T !numEQ NUMEQ:38884  - Data de conexão anterior06/2011.
new line.CTR190770 bus1=BMT123271348.1,bus2=BMT123271355.1,Phases=1,LineCode=tieSwitch1,Length=0.001,Units=km,switch=T !numEQ NUMEQ:38886  - Data de conexão anterior06/2011.
new line.CTR190777 bus1=BMT123271040.1,bus2=BMT166680758.1,Phases=1,LineCode=tieSwitch1,Length=0.001,Units=km,switch=T !numEQ NUMEQ:38887  - Data de conexão anterior06/2011.
new line.CTR190784 bus1=BMT123270984.1,bus2=BMT135150600.1,Phases=1,LineCode=tieSwitch1,Length=0.001,Units=km,switch=T !numEQ NUMEQ:38888  - Data de conexão anterior06/2011.
new line.CTR190791 bus1=BMT123271796.1,bus2=BMT123271866.1,Phases=1,LineCode=tieSwitch1,Length=0.001,Units=km,switch=T !numEQ NUMEQ:38889  - Data de conexão anterior06/2011.
new line.CTR20432 bus1=BMT123274232.2,bus2=BMT135145770.2,Phases=1,LineCode=tieSwitch1,Length=0.001,Units=km,switch=T !numEQ NUMEQ:181954  - Data de conexão anterior06/2011.
new line.CTR228906 bus1=BMT123282471.2,bus2=BMT174725954.2,Phases=1,LineCode=tieSwitch1,Length=0.001,Units=km,switch=T !numEQ NUMEQ:25803  - Data de conexão anterior06/2011.
new line.CTR228969 bus1=BMT175306201.3,bus2=BMT123272573.3,Phases=1,LineCode=tieSwitch1,Length=0.001,Units=km,switch=T !numEQ NUMEQ:25820  - Data de conexão anterior06/2011.
open line.CTR228969 term=1
new line.CTR229144 bus1=BMT123279440.1,bus2=BMT173707619.1,Phases=1,LineCode=tieSwitch1,Length=0.001,Units=km,switch=T !numEQ NUMEQ:25860  - Data de conexão anterior06/2011.
new line.CTR229151 bus1=BMT123285586.3,bus2=BMT178808378.3,Phases=1,LineCode=tieSwitch1,Length=0.001,Units=km,switch=T !numEQ NUMEQ:25865  - Data de conexão anterior06/2011.
new line.CTR229158 bus1=BMT123285502.3,bus2=BMT158401700.3,Phases=1,LineCode=tieSwitch1,Length=0.001,Units=km,switch=T !numEQ NUMEQ:25868  - Data de conexão anterior06/2011.
new line.CTR229235 bus1=BMT123279664.1,bus2=BMT150502045.1,Phases=1,LineCode=tieSwitch1,Length=0.001,Units=km,switch=T !numEQ NUMEQ:25864  - Data de conexão anterior06/2011.
new line.CTR229242 bus1=BMT123283724.3,bus2=BMT167040327.3,Phases=1,LineCode=tieSwitch1,Length=0.001,Units=km,switch=T !numEQ NUMEQ:25882  - Data de conexão anterior06/2011.
new line.CTR229620 bus1=BMT123282394.2,bus2=BMT151364668.2,Phases=1,LineCode=tieSwitch1,Length=0.001,Units=km,switch=T !numEQ NUMEQ:25678  - Data de conexão anterior06/2011.
new line.CTR280251 bus1=BMT123274365.2,bus2=BMT123275240.2,Phases=1,LineCode=tieSwitch1,Length=0.001,Units=km,switch=T !numEQ NUMEQ:38881  - Data de conexão anterior06/2011.
new line.CTR280265 bus1=BMT123274449.2,bus2=BMT123275100.2,Phases=1,LineCode=tieSwitch1,Length=0.001,Units=km,switch=T !numEQ NUMEQ:40484  - Data de conexão anterior06/2011.
new line.CTR280272 bus1=BMT123274477.2,bus2=BMT123275058.2,Phases=1,LineCode=tieSwitch1,Length=0.001,Units=km,switch=T !numEQ NUMEQ:40485  - Data de conexão anterior06/2011.
new line.CTR280279 bus1=BMT123274505.2,bus2=BMT123274995.2,Phases=1,LineCode=tieSwitch1,Length=0.001,Units=km,switch=T !numEQ NUMEQ:40486  - Data de conexão anterior06/2011.
new line.CTR280930 bus1=BMT123273161.3,bus2=BMT151364189.3,Phases=1,LineCode=tieSwitch1,Length=0.001,Units=km,switch=T !numEQ NUMEQ:83688  - Data de conexão anterior06/2011.
new line.CTR280944 bus1=BMT123278061.3,bus2=BMT136391791.3,Phases=1,LineCode=tieSwitch1,Length=0.001,Units=km,switch=T !numEQ NUMEQ:80437  - Data de conexão anterior06/2011.
new line.CTR280951 bus1=BMT123277613.2,bus2=BMT123277634.2,Phases=1,LineCode=tieSwitch1,Length=0.001,Units=km,switch=T !numEQ NUMEQ:80432  - Data de conexão anterior06/2011.
new line.CTR280972 bus1=BMT123277109.3,bus2=BMT123277123.3,Phases=1,LineCode=tieSwitch1,Length=0.001,Units=km,switch=T !numEQ NUMEQ:80444  - Data de conexão anterior06/2011.
new line.CTR280993 bus1=BMT123277886.3,bus2=BMT135281465.3,Phases=1,LineCode=tieSwitch1,Length=0.001,Units=km,switch=T !numEQ NUMEQ:28401  - Data de conexão anterior06/2011.
new line.CTR28160 bus1=BMT123288904.1,bus2=BMT175833671.1,Phases=1,LineCode=tieSwitch1,Length=0.001,Units=km,switch=T !numEQ NUMEQ:177790  - Data de conexão anterior06/2011.
new line.CTR282064 bus1=BMT123273735.3,bus2=BMT161825584.3,Phases=1,LineCode=tieSwitch1,Length=0.001,Units=km,switch=T !numEQ NUMEQ:83693  - Data de conexão anterior06/2011.
new line.CTR283121 bus1=BMT123275310.2,bus2=BMT123275331.2,Phases=1,LineCode=tieSwitch1,Length=0.001,Units=km,switch=T !numEQ NUMEQ:26572  - Data de conexão anterior06/2011.
new line.CTR283149 bus1=BMT123274498.2,bus2=BMT123275037.2,Phases=1,LineCode=tieSwitch1,Length=0.001,Units=km,switch=T !numEQ NUMEQ:146519  - Data de conexão anterior06/2011.
new line.CTR283156 bus1=BMT123273168.3,bus2=BMT151364186.3,Phases=1,LineCode=tieSwitch1,Length=0.001,Units=km,switch=T !numEQ NUMEQ:146520  - Data de conexão anterior06/2011.
new line.CTR312178 bus1=BMT123284046.3,bus2=BMT151364997.3,Phases=1,LineCode=tieSwitch1,Length=0.001,Units=km,switch=T !numEQ NUMEQ:217942  - Data de conexão anterior06/2011.
new line.CTR43105 bus1=BMT123272552.1,bus2=BMT166690919.1,Phases=1,LineCode=tieSwitch1,Length=0.001,Units=km,switch=T !numEQ NUMEQ:156944  - Data de conexão anterior06/2011.
new line.CTR432718 bus1=BMT138640793.3,bus2=BMT177227910.3,Phases=1,LineCode=tieSwitch1,Length=0.001,Units=km,switch=T !numEQ NUMEQ:303494  - Data de conexão anterior06/2011.
new line.CTR67458 bus1=BMT123270354.2,bus2=BMT123276626.2,Phases=1,LineCode=tieSwitch1,Length=0.001,Units=km,switch=T !numEQ NUMEQ:39477  - Data de conexão anterior06/2011.
new line.CTR80296 bus1=BMT123281764.1.2.3,bus2=BMT158501694.1.2.3,Phases=3,LineCode=tieSwitch,Length=0.001,Units=km,switch=T !numEQ NUMEQ:114729  - Data de conexão anterior06/2011.
new line.CTR85021 bus1=BMT123083188.3,bus2=BMT123083573.3,Phases=1,LineCode=tieSwitch1,Length=0.001,Units=km,switch=T !numEQ NUMEQ:23180  - Data de conexão anterior06/2011.
new line.CTR866008 bus1=BMT154571199.1,bus2=BMT161172127.1,Phases=1,LineCode=tieSwitch1,Length=0.001,Units=km,switch=T !numEQ NUMEQ:155890  - Data de conexão anterior06/2011.
new line.CTR867321 bus1=BMT154895629.2,bus2=BMT173751060.2,Phases=1,LineCode=tieSwitch1,Length=0.001,Units=km,switch=T !numEQ NUMEQ:239785  - Data de conexão anterior06/2011.
new line.CTR867633 bus1=BMT154975711.1,bus2=BMT154975720.1,Phases=1,LineCode=tieSwitch1,Length=0.001,Units=km,switch=T !numEQ NUMEQ:101088  - Data de conexão anterior06/2011.
new line.CTR877691 bus1=BMT158121320.3,bus2=BMT158121322.3,Phases=1,LineCode=tieSwitch1,Length=0.001,Units=km,switch=T !numEQ NUMEQ:245917  - Data de conexão anterior06/2011.
new line.CTR87898 bus1=BMT123083265.3,bus2=BMT174273553.3,Phases=1,LineCode=tieSwitch1,Length=0.001,Units=km,switch=T !numEQ NUMEQ:111082  - Data de conexão anterior06/2011.
new line.CTR89102 bus1=BMT123282338.1,bus2=BMT135485837.1,Phases=1,LineCode=tieSwitch1,Length=0.001,Units=km,switch=T !numEQ NUMEQ:111056  - Data de conexão anterior06/2011.
new line.CTR89109 bus1=BMT123281813.2,bus2=BMT162715077.2,Phases=1,LineCode=tieSwitch1,Length=0.001,Units=km,switch=T !numEQ NUMEQ:111057  - Data de conexão anterior06/2011.
new line.CTR891396 bus1=BMT163697809.2,bus2=BMT175540170.2,Phases=1,LineCode=tieSwitch1,Length=0.001,Units=km,switch=T !numEQ NUMEQ:220718  - Data de conexão anterior06/2011.
new line.CTR891736 bus1=BMT163832265.3,bus2=BMT163865385.3,Phases=1,LineCode=tieSwitch1,Length=0.001,Units=km,switch=T !numEQ NUMEQ:249078  - Data de conexão anterior06/2011.
new line.CTR891897 bus1=BMT163892113.1,bus2=BMT172595793.1,Phases=1,LineCode=tieSwitch1,Length=0.001,Units=km,switch=T !numEQ NUMEQ:244341  - Data de conexão anterior06/2011.
new line.CTR1140 bus1=BMT123082761.1.2.3,bus2=BMT123082866.1.2.3,Phases=3,LineCode=tieSwitch,Length=0.001,Units=km,switch=T !numEQ NUMEQ:26488  - Data de conexão anterior06/2011.
new line.CTR132768 bus1=BMT123272601.1,bus2=BMT150226994.1,Phases=1,LineCode=tieSwitch1,Length=0.001,Units=km,switch=T !numEQ NUMEQ:81165  - Data de conexão anterior06/2011.
new line.CTR133293 bus1=BMT123272580.1,bus2=BMT161803975.1,Phases=1,LineCode=tieSwitch1,Length=0.001,Units=km,switch=T !numEQ NUMEQ:81308  - Data de conexão anterior06/2011.
new line.CTR133300 bus1=BMT123272594.1,bus2=BMT150226990.1,Phases=1,LineCode=tieSwitch1,Length=0.001,Units=km,switch=T !numEQ NUMEQ:81309  - Data de conexão anterior06/2011.
new line.CTR133307 bus1=BMT123285964.3,bus2=BMT157275307.3,Phases=1,LineCode=tieSwitch1,Length=0.001,Units=km,switch=T !numEQ NUMEQ:81311  - Data de conexão anterior06/2011.
new line.CTR169854 bus1=BMT123273721.3,bus2=BMT151364153.3,Phases=1,LineCode=tieSwitch1,Length=0.001,Units=km,switch=T !numEQ NUMEQ:83694  - Data de conexão anterior06/2011.
...