2024_89_CemigReconfigurationCases/1_AlimsCemig/MIB15/MIB15Transformadores.dss
new transformer.1005101 Phases=3,Windings=2,Buses=[BMT180219689.1.2.3 BBT83929451.1.2.3.0],Conns=[delta wye],kvs=[13.800000000 0.22],kvas=[75.000000000 75.000000000],Taps=[1,1.000000000],XHL=3.720000000,%loadloss=1.470000000,%noloadloss=0.393000000
new transformer.1075584 Phases=1,Windings=3,Buses=[BMT161282138.1 BBT134680172.1.0 BBT134680172.0.2],Conns=[wye wye wye],kvs=[7.967 0.12 0.12],kvas=[15.000000000 15.000000000 15.000000000],Taps=[1,1.000000000,1.000000000],XHL=1.770000000,XHT=1.770000000,XLT=1.416000000,%loadloss=1.770000000,%noloadloss=0.433000000
new transformer.1119166 Phases=1,Windings=3,Buses=[BMT162715092.2 BBT146590567.1.0 BBT146590567.0.2],Conns=[wye wye wye],kvs=[7.967 0.12 0.12],kvas=[15.000000000 15.000000000 15.000000000],Taps=[1,1.000000000,1.000000000],XHL=1.770000000,XHT=1.770000000,XLT=1.416000000,%loadloss=1.770000000,%noloadloss=0.433000000
new transformer.1390459 Phases=1,Windings=3,Buses=[BMT148130193.1 BBT148130210.1.0 BBT148130210.0.2],Conns=[wye wye wye],kvs=[7.967 0.12 0.12],kvas=[10.000000000 10.000000000 10.000000000],Taps=[1,1.030000000,1.030000000],XHL=1.560000000,XHT=1.560000000,XLT=1.248000000,%loadloss=1.950000000,%noloadloss=0.500000000
new transformer.1390488 Phases=1,Windings=3,Buses=[BMT161438036.1 BBT148145720.1.0 BBT148145720.0.2],Conns=[wye wye wye],kvs=[7.967 0.12 0.12],kvas=[10.000000000 10.000000000 10.000000000],Taps=[1,1.000000000,1.000000000],XHL=1.560000000,XHT=1.560000000,XLT=1.248000000,%loadloss=1.950000000,%noloadloss=0.500000000
new transformer.1390856 Phases=1,Windings=3,Buses=[BMT174926329.1 BBT148237449.1.0 BBT148237449.0.2],Conns=[wye wye wye],kvs=[7.967 0.12 0.12],kvas=[35.000000000 35.000000000 35.000000000],Taps=[1,1.000000000,1.000000000],XHL=2.060000000,XHT=2.060000000,XLT=1.648000000,%loadloss=1.410000000,%noloadloss=0.385000000
new transformer.1395864 Phases=1,Windings=3,Buses=[BMT156059902.3 BBT149393624.1.0 BBT149393624.0.2],Conns=[wye wye wye],kvs=[7.967 0.12 0.12],kvas=[5.000000000 5.000000000 5.000000000],Taps=[1,1.000000000,1.000000000],XHL=1.360000000,XHT=1.360000000,XLT=1.088000000,%loadloss=2.100000000,%noloadloss=0.700000000
new transformer.1395867 Phases=1,Windings=3,Buses=[BMT156059901.3 BBT149393729.1.0 BBT149393729.0.2],Conns=[wye wye wye],kvs=[7.967 0.12 0.12],kvas=[5.000000000 5.000000000 5.000000000],Taps=[1,1.000000000,1.000000000],XHL=1.360000000,XHT=1.360000000,XLT=1.088000000,%loadloss=2.100000000,%noloadloss=0.700000000
new transformer.1396466 Phases=1,Windings=3,Buses=[BMT178193185.1 BBT149553918.1.0 BBT149553918.0.2],Conns=[wye wye wye],kvs=[7.967 0.12 0.12],kvas=[10.000000000 10.000000000 10.000000000],Taps=[1,1.000000000,1.000000000],XHL=1.560000000,XHT=1.560000000,XLT=1.248000000,%loadloss=1.950000000,%noloadloss=0.500000000
new transformer.1396482 Phases=1,Windings=3,Buses=[BMT178193193.2 BBT149559854.1.0 BBT149559854.0.2],Conns=[wye wye wye],kvs=[7.967 0.12 0.12],kvas=[10.000000000 10.000000000 10.000000000],Taps=[1,1.000000000,1.000000000],XHL=1.560000000,XHT=1.560000000,XLT=1.248000000,%loadloss=1.950000000,%noloadloss=0.500000000
new transformer.1401832 Phases=1,Windings=3,Buses=[BMT154757626.1 BBT150925264.1.0 BBT150925264.0.2],Conns=[wye wye wye],kvs=[7.967 0.12 0.12],kvas=[15.000000000 15.000000000 15.000000000],Taps=[1,1.000000000,1.000000000],XHL=1.770000000,XHT=1.770000000,XLT=1.416000000,%loadloss=1.770000000,%noloadloss=0.433000000
new transformer.1413359 Phases=1,Windings=3,Buses=[BMT163847061.1 BBT153500668.1.0 BBT153500668.0.2],Conns=[wye wye wye],kvs=[7.967 0.12 0.12],kvas=[35.000000000 35.000000000 35.000000000],Taps=[1,1.000000000,1.000000000],XHL=2.060000000,XHT=2.060000000,XLT=1.648000000,%loadloss=1.410000000,%noloadloss=0.385000000
new transformer.1417660 Phases=1,Windings=3,Buses=[BMT161172129.1 BBT154571843.1.0 BBT154571843.0.2],Conns=[wye wye wye],kvs=[7.967 0.12 0.12],kvas=[10.000000000 10.000000000 10.000000000],Taps=[1,1.000000000,1.000000000],XHL=1.560000000,XHT=1.560000000,XLT=1.248000000,%loadloss=1.950000000,%noloadloss=0.500000000
new transformer.1417809 Phases=1,Windings=3,Buses=[BMT166690920.1 BBT154602346.1.0 BBT154602346.0.2],Conns=[wye wye wye],kvs=[7.967 0.12 0.12],kvas=[10.000000000 10.000000000 10.000000000],Taps=[1,1.040000000,1.040000000],XHL=1.560000000,XHT=1.560000000,XLT=1.248000000,%loadloss=1.950000000,%noloadloss=0.500000000
new transformer.1417912 Phases=1,Windings=3,Buses=[BMT174273562.3 BBT154627023.1.0 BBT154627023.0.2],Conns=[wye wye wye],kvs=[7.967 0.12 0.12],kvas=[10.000000000 10.000000000 10.000000000],Taps=[1,1.000000000,1.000000000],XHL=1.560000000,XHT=1.560000000,XLT=1.248000000,%loadloss=1.950000000,%noloadloss=0.500000000
new transformer.1418226 Phases=1,Windings=3,Buses=[BMT175546766.3 BBT154693512.1.0 BBT154693512.0.2],Conns=[wye wye wye],kvs=[7.967 0.12 0.12],kvas=[15.000000000 15.000000000 15.000000000],Taps=[1,1.030000000,1.030000000],XHL=1.770000000,XHT=1.770000000,XLT=1.416000000,%loadloss=1.770000000,%noloadloss=0.433000000
...